####################################################################### 
# 
# This file contains crystal structure data downloaded from the 
# Cambridge Structural Database (CSD) hosted by the Cambridge 
# Crystallographic Data Centre (CCDC).
# 
# Full information about CCDC data access policies and citation 
# guidelines are available at http://www.ccdc.cam.ac.uk/access/V1 
# 
# Audit and citation data items may have been added by the CCDC. 
# Please retain this information to preserve the provenance of 
# this file and to allow appropriate attribution of the data. 
# 
#######################################################################

data_1
_audit_block_doi                 10.25505/fiz.icsd.cc2g4f9c
_database_code_depnum_ccdc_archive 'CCDC 2268372'
loop_
_citation_id
_citation_doi
_citation_year
1 10.1021/acs.inorgchem.3c02247 2023
loop_
_audit_author_name
_audit_author_address
'Sergei Novikov' 'McMaster University'
_audit_update_record             
;
2023-07-29 deposited with the CCDC.	2024-02-07 downloaded from the CCDC.
;
_audit_creation_date             2023-07-25
_audit_creation_method           
;
Olex2 1.5-alpha
(compiled 2021.06.01 svn.r985b505f for OlexSys, GUI svn.r6335)
;
_shelx_SHELXL_version_number     2018/3
_chemical_name_common            ?
_chemical_name_systematic        ?
_chemical_formula_moiety         'Ge5 Na4 O16 Sn2'
_chemical_formula_sum            'Ge5 Na4 O16 Sn2'
_chemical_formula_weight         948.29
_chemical_melting_point          ?
loop_
_atom_type_symbol
_atom_type_description
_atom_type_scat_dispersion_real
_atom_type_scat_dispersion_imag
_atom_type_scat_source
Ge Ge 0.1547 1.8001 'International Tables Vol C Tables 4.2.6.8 and 6.1.1.4'
Na Na 0.0362 0.0249 'International Tables Vol C Tables 4.2.6.8 and 6.1.1.4'
O O 0.0106 0.0060 'International Tables Vol C Tables 4.2.6.8 and 6.1.1.4'
Sn Sn -0.6537 1.4246 'International Tables Vol C Tables 4.2.6.8 and 6.1.1.4'

_shelx_space_group_comment       
;
The symmetry employed for this shelxl refinement is uniquely defined
by the following loop, which should always be used as a source of
symmetry information in preference to the above space-group names.
They are only intended as comments.
;
_space_group_crystal_system      orthorhombic
_space_group_IT_number           60
_space_group_name_H-M_alt        'P b c n'
_space_group_name_Hall           '-P 2n 2ab'
loop_
_space_group_symop_operation_xyz
'x, y, z'
'-x+1/2, -y+1/2, z+1/2'
'x+1/2, -y+1/2, -z'
'-x, y, -z+1/2'
'-x, -y, -z'
'x-1/2, y-1/2, -z-1/2'
'-x-1/2, y-1/2, z'
'x, -y, z-1/2'

_cell_length_a                   6.5063(13)
_cell_length_b                   11.912(2)
_cell_length_c                   18.995(4)
_cell_angle_alpha                90
_cell_angle_beta                 90
_cell_angle_gamma                90
_cell_volume                     1472.2(5)
_cell_formula_units_Z            4
_cell_measurement_reflns_used    2666
_cell_measurement_temperature    293(2)
_cell_measurement_theta_max      32.500
_cell_measurement_theta_min      3.421
_shelx_estimated_absorpt_T_max   ?
_shelx_estimated_absorpt_T_min   ?
_exptl_absorpt_coefficient_mu    13.614
_exptl_absorpt_correction_T_max  0.4742
_exptl_absorpt_correction_T_min  0.1479
_exptl_absorpt_correction_type   numerical
_exptl_absorpt_process_details   
'X-SHAPE ver. 2.05 and X-RED32 ver. 1.10, STOE & Cie GmbH: Darmstadt,Germany,2004.'
_exptl_absorpt_special_details   ?
_exptl_crystal_colour            ?
_exptl_crystal_density_diffrn    4.279
_exptl_crystal_density_meas      ?
_exptl_crystal_density_method    ?
_exptl_crystal_description       block
_exptl_crystal_F_000             1728
_exptl_crystal_size_max          .147
_exptl_crystal_size_mid          .102
_exptl_crystal_size_min          .06
_exptl_transmission_factor_max   ?
_exptl_transmission_factor_min   ?
_diffrn_reflns_av_R_equivalents  0.0458
_diffrn_reflns_av_unetI/netI     0.0316
_diffrn_reflns_Laue_measured_fraction_full 0.999
_diffrn_reflns_Laue_measured_fraction_max 1.000
_diffrn_reflns_limit_h_max       9
_diffrn_reflns_limit_h_min       -9
_diffrn_reflns_limit_k_max       17
_diffrn_reflns_limit_k_min       -18
_diffrn_reflns_limit_l_max       27
_diffrn_reflns_limit_l_min       -28
_diffrn_reflns_number            19471
_diffrn_reflns_point_group_measured_fraction_full 0.999
_diffrn_reflns_point_group_measured_fraction_max 1.000
_diffrn_reflns_theta_full        25.242
_diffrn_reflns_theta_max         32.500
_diffrn_reflns_theta_min         3.421
_diffrn_ambient_temperature      293(2)
_diffrn_detector_area_resol_mean ?
_diffrn_measured_fraction_theta_full 0.999
_diffrn_measured_fraction_theta_max 1.000
_diffrn_measurement_device_type  'Bruker P4'
_diffrn_measurement_method       '\w scans'
_diffrn_radiation_type           MoK\a
_diffrn_radiation_wavelength     0.71073
_diffrn_source                   ?
_reflns_Friedel_coverage         0.000
_reflns_Friedel_fraction_full    .
_reflns_Friedel_fraction_max     .
_reflns_number_gt                2171
_reflns_number_total             2666
_reflns_special_details          
;
 Reflections were merged by SHELXL according to the crystal
 class for the calculation of statistics and refinement.
 
 _reflns_Friedel_fraction is defined as the number of unique
 Friedel pairs measured divided by the number that would be
 possible theoretically, ignoring centric projections and
 systematic absences.
;
_reflns_threshold_expression     'I > 2\s(I)'
_computing_cell_refinement       ?
_computing_data_collection       ?
_computing_data_reduction        ?
_computing_molecular_graphics    'Olex2 1.5-alpha (Dolomanov et al., 2009)'
_computing_publication_material  'Olex2 1.5-alpha (Dolomanov et al., 2009)'
_computing_structure_refinement  'SHELXL 2018/3 (Sheldrick, 2015)'
_computing_structure_solution    'SHELXT 2018/2 (Sheldrick, 2018)'
_refine_diff_density_max         1.816
_refine_diff_density_min         -2.078
_refine_diff_density_rms         0.296
_refine_ls_extinction_coef       .
_refine_ls_extinction_method     none
_refine_ls_goodness_of_fit_ref   0.993
_refine_ls_hydrogen_treatment    undef
_refine_ls_matrix_type           full
_refine_ls_number_parameters     124
_refine_ls_number_reflns         2666
_refine_ls_number_restraints     0
_refine_ls_R_factor_all          0.0472
_refine_ls_R_factor_gt           0.0321
_refine_ls_restrained_S_all      0.993
_refine_ls_shift/su_max          0.001
_refine_ls_shift/su_mean         0.000
_refine_ls_structure_factor_coef Fsqd
_refine_ls_weighting_details     
'w=1/[\s^2^(Fo^2^)+(0.0472P)^2^] where P=(Fo^2^+2Fc^2^)/3'
_refine_ls_weighting_scheme      calc
_refine_ls_wR_factor_gt          0.0713
_refine_ls_wR_factor_ref         0.0754
_refine_special_details          ?
_olex2_refinement_description    
;
;
_atom_sites_solution_hydrogens   .
_atom_sites_solution_primary     ?
_atom_sites_solution_secondary   ?
loop_
_atom_site_label
_atom_site_type_symbol
_atom_site_fract_x
_atom_site_fract_y
_atom_site_fract_z
_atom_site_U_iso_or_equiv
_atom_site_adp_type
_atom_site_occupancy
_atom_site_site_symmetry_order
_atom_site_calc_flag
_atom_site_refinement_flags_posn
_atom_site_refinement_flags_adp
_atom_site_refinement_flags_occupancy
_atom_site_disorder_assembly
_atom_site_disorder_group
Sn1 Sn 1.21139(4) 0.53302(2) 0.39125(2) 0.00875(7) Uani 1 1 d . . . . .
Ge1 Ge 0.71374(7) 0.49977(4) 0.43284(2) 0.00929(9) Uani 1 1 d . . . . .
Ge2 Ge 0.500000 0.16037(5) 0.250000 0.01039(12) Uani 1 2 d S T P . .
Ge3 Ge 0.46811(7) 0.29472(4) 0.38147(2) 0.00951(9) Uani 1 1 d . . . . .
Na1 Na 0.5102(4) 0.23175(18) 0.54532(13) 0.0250(5) Uani 1 1 d . . . . .
Na2 Na 0.000000 0.0175(5) 0.250000 0.0670(16) Uani 1 2 d S T P . .
Na3 Na 0.000000 0.3839(5) 0.250000 0.105(3) Uani 1 2 d S T P . .
O1 O 0.9156(5) 0.4905(3) 0.37366(18) 0.0150(6) Uani 1 1 d . . . . .
O2 O 0.7815(5) 0.5504(3) 0.51548(17) 0.0135(6) Uani 1 1 d . . . . .
O3 O 0.5144(5) 0.5780(3) 0.39566(19) 0.0150(6) Uani 1 1 d . . . . .
O4 O 0.6387(5) 0.3568(2) 0.44149(18) 0.0130(6) Uani 1 1 d . . . . .
O5 O 0.3564(5) 0.1877(3) 0.43008(17) 0.0134(6) Uani 1 1 d . . . . .
O6 O 0.2899(6) 0.3845(3) 0.34382(19) 0.0180(7) Uani 1 1 d . . . . .
O7 O 0.6240(5) 0.2472(3) 0.31214(17) 0.0141(6) Uani 1 1 d . . . . .
O8 O 0.2988(5) 0.0892(3) 0.28926(19) 0.0174(6) Uani 1 1 d . . . . .

loop_
_atom_site_aniso_label
_atom_site_aniso_U_11
_atom_site_aniso_U_22
_atom_site_aniso_U_33
_atom_site_aniso_U_23
_atom_site_aniso_U_13
_atom_site_aniso_U_12
Sn1 0.00828(12) 0.00862(12) 0.00935(12) 0.00018(9) -0.00011(9) 0.00072(9)
Ge1 0.0084(2) 0.00983(19) 0.0096(2) -0.00032(13) -0.00037(15) -0.00007(15)
Ge2 0.0103(3) 0.0108(3) 0.0101(3) 0.000 0.0018(2) 0.000
Ge3 0.01020(19) 0.00830(17) 0.01003(19) -0.00056(14) -0.00006(15) -0.00001(14)
Na1 0.0225(11) 0.0245(10) 0.0281(11) -0.0031(9) -0.0039(9) -0.0042(8)
Na2 0.042(3) 0.088(4) 0.072(4) 0.000 -0.037(3) 0.000
Na3 0.176(9) 0.063(3) 0.077(5) 0.000 -0.084(5) 0.000
O1 0.0078(13) 0.0246(16) 0.0124(15) -0.0042(12) 0.0013(11) -0.0029(11)
O2 0.0195(15) 0.0118(13) 0.0091(13) -0.0003(10) -0.0009(11) -0.0025(12)
O3 0.0075(13) 0.0151(14) 0.0223(17) 0.0064(12) -0.0022(12) 0.0004(11)
O4 0.0152(15) 0.0090(13) 0.0149(15) -0.0011(10) -0.0036(11) -0.0034(11)
O5 0.0174(16) 0.0091(13) 0.0138(15) -0.0014(11) 0.0023(11) -0.0053(11)
O6 0.0227(17) 0.0159(15) 0.0154(15) -0.0054(12) -0.0085(13) 0.0092(13)
O7 0.0139(16) 0.0152(14) 0.0131(15) -0.0062(11) 0.0013(11) -0.0025(11)
O8 0.0131(15) 0.0236(16) 0.0155(15) 0.0067(12) 0.0001(12) -0.0052(13)

_geom_special_details            
;
 All esds (except the esd in the dihedral angle between two l.s. planes)
 are estimated using the full covariance matrix.  The cell esds are taken
 into account individually in the estimation of esds in distances, angles
 and torsion angles; correlations between esds in cell parameters are only
 used when they are defined by crystal symmetry.  An approximate (isotropic)
 treatment of cell esds is used for estimating esds involving l.s. planes.
;
loop_
_geom_bond_atom_site_label_1
_geom_bond_atom_site_label_2
_geom_bond_distance
_geom_bond_site_symmetry_2
_geom_bond_publ_flag
Sn1 Na1 3.547(2) 5_766 ?
Sn1 Na1 3.621(2) 3_556 ?
Sn1 Na2 3.2802(7) 6_766 ?
Sn1 Na3 3.500(3) 1_655 ?
Sn1 O1 2.018(3) . ?
Sn1 O2 2.032(3) 5_766 ?
Sn1 O3 2.045(3) 1_655 ?
Sn1 O5 2.033(3) 7_765 ?
Sn1 O6 2.050(3) 1_655 ?
Sn1 O8 2.051(3) 7_765 ?
Ge1 Na1 3.539(2) 5_666 ?
Ge1 Na1 3.391(2) 3_556 ?
Ge1 O1 1.732(3) . ?
Ge1 O2 1.739(3) . ?
Ge1 O3 1.746(3) . ?
Ge1 O4 1.779(3) . ?
Ge2 Na3 3.294(6) 6_656 ?
Ge2 O7 1.765(3) 4_655 ?
Ge2 O7 1.765(3) . ?
Ge2 O8 1.729(3) . ?
Ge2 O8 1.729(3) 4_655 ?
Ge3 Na1 3.213(3) . ?
Ge3 Na1 3.303(3) 3_456 ?
Ge3 O4 1.755(3) . ?
Ge3 O5 1.733(3) . ?
Ge3 O6 1.732(3) . ?
Ge3 O7 1.756(3) . ?
Na1 O2 2.612(4) 7_755 ?
Na1 O3 2.534(4) 5_666 ?
Na1 O4 2.650(4) 3_456 ?
Na1 O4 2.609(4) . ?
Na1 O5 2.492(4) 3_556 ?
Na1 O5 2.463(4) . ?
Na2 Na3 3.622(4) 6_556 ?
Na2 Na3 3.622(4) 6_656 ?
Na2 O3 2.861(4) 6_556 ?
Na2 O3 2.861(4) 7_655 ?
Na2 O6 2.748(5) 7_655 ?
Na2 O6 2.748(5) 6_556 ?
Na2 O8 2.251(4) . ?
Na2 O8 2.251(4) 4 ?
Na3 O1 2.726(4) 4_655 ?
Na3 O1 2.726(4) 1_455 ?
Na3 O6 2.595(3) 4 ?
Na3 O6 2.595(3) . ?
Na3 O8 2.873(7) 7_665 ?
Na3 O8 2.873(7) 6_566 ?

loop_
_geom_angle_atom_site_label_1
_geom_angle_atom_site_label_2
_geom_angle_atom_site_label_3
_geom_angle
_geom_angle_site_symmetry_1
_geom_angle_site_symmetry_3
_geom_angle_publ_flag
Na1 Sn1 Na1 139.43(8) 5_766 3_556 ?
Na2 Sn1 Na1 115.46(11) 6_766 3_556 ?
Na2 Sn1 Na1 91.73(10) 6_766 5_766 ?
Na2 Sn1 Na3 64.48(6) 6_766 1_655 ?
Na3 Sn1 Na1 149.55(8) 1_655 5_766 ?
Na3 Sn1 Na1 70.78(9) 1_655 3_556 ?
O1 Sn1 Na1 59.45(11) . 3_556 ?
O1 Sn1 Na1 137.87(10) . 5_766 ?
O1 Sn1 Na2 113.35(10) . 6_766 ?
O1 Sn1 Na3 51.00(9) . 1_655 ?
O1 Sn1 O2 92.47(14) . 5_766 ?
O1 Sn1 O3 172.80(14) . 1_655 ?
O1 Sn1 O5 94.64(14) . 7_765 ?
O1 Sn1 O6 87.02(14) . 1_655 ?
O1 Sn1 O8 83.97(14) . 7_765 ?
O2 Sn1 Na1 94.51(10) 5_766 5_766 ?
O2 Sn1 Na1 44.93(10) 5_766 3_556 ?
O2 Sn1 Na2 132.27(12) 5_766 6_766 ?
O2 Sn1 Na3 115.41(12) 5_766 1_655 ?
O2 Sn1 O3 94.04(14) 5_766 1_655 ?
O2 Sn1 O5 97.59(13) 5_766 7_765 ?
O2 Sn1 O6 87.45(14) 5_766 1_655 ?
O2 Sn1 O8 169.76(14) 5_766 7_765 ?
O3 Sn1 Na1 124.26(10) 1_655 3_556 ?
O3 Sn1 Na1 44.52(10) 1_655 5_766 ?
O3 Sn1 Na2 59.75(11) 1_655 6_766 ?
O3 Sn1 Na3 122.90(10) 1_655 1_655 ?
O3 Sn1 O6 90.21(15) 1_655 1_655 ?
O3 Sn1 O8 89.10(14) 1_655 7_765 ?
O5 Sn1 Na1 43.25(11) 7_765 5_766 ?
O5 Sn1 Na1 126.18(11) 7_765 3_556 ?
O5 Sn1 Na2 118.16(15) 7_765 6_766 ?
O5 Sn1 Na3 130.76(12) 7_765 1_655 ?
O5 Sn1 O3 87.54(14) 7_765 1_655 ?
O5 Sn1 O6 174.61(15) 7_765 1_655 ?
O5 Sn1 O8 92.28(14) 7_765 7_765 ?
O6 Sn1 Na1 134.73(12) 1_655 5_766 ?
O6 Sn1 Na1 58.98(12) 1_655 3_556 ?
O6 Sn1 Na2 56.57(15) 1_655 6_766 ?
O6 Sn1 Na3 47.37(12) 1_655 1_655 ?
O6 Sn1 O8 82.79(14) 1_655 7_765 ?
O8 Sn1 Na1 125.95(11) 7_765 3_556 ?
O8 Sn1 Na1 94.56(12) 7_765 5_766 ?
O8 Sn1 Na2 42.62(11) 7_765 6_766 ?
O8 Sn1 Na3 55.17(13) 7_765 1_655 ?
Na1 Ge1 Na1 162.72(7) 3_556 5_666 ?
O1 Ge1 Na1 66.18(13) . 3_556 ?
O1 Ge1 Na1 116.49(13) . 5_666 ?
O1 Ge1 O2 114.57(16) . . ?
O1 Ge1 O3 109.56(17) . . ?
O1 Ge1 O4 101.94(16) . . ?
O2 Ge1 Na1 91.57(12) . 3_556 ?
O2 Ge1 Na1 71.64(11) . 5_666 ?
O2 Ge1 O3 111.63(16) . . ?
O2 Ge1 O4 108.57(15) . . ?
O3 Ge1 Na1 42.22(12) . 5_666 ?
O3 Ge1 Na1 154.94(12) . 3_556 ?
O3 Ge1 O4 110.12(15) . . ?
O4 Ge1 Na1 50.69(12) . 3_556 ?
O4 Ge1 Na1 137.82(12) . 5_666 ?
O7 Ge2 Na3 125.89(11) 4_655 6_656 ?
O7 Ge2 Na3 125.89(11) . 6_656 ?
O7 Ge2 O7 108.2(2) . 4_655 ?
O8 Ge2 Na3 60.65(13) . 6_656 ?
O8 Ge2 Na3 60.65(13) 4_655 6_656 ?
O8 Ge2 O7 110.19(16) 4_655 4_655 ?
O8 Ge2 O7 103.27(16) 4_655 . ?
O8 Ge2 O7 110.19(16) . . ?
O8 Ge2 O7 103.27(16) . 4_655 ?
O8 Ge2 O8 121.3(3) . 4_655 ?
Na1 Ge3 Na1 69.32(4) . 3_456 ?
O4 Ge3 Na1 54.21(12) . . ?
O4 Ge3 Na1 109.71(12) . 3_456 ?
O4 Ge3 O7 104.94(16) . . ?
O5 Ge3 Na1 47.73(12) . 3_456 ?
O5 Ge3 Na1 49.32(12) . . ?
O5 Ge3 O4 103.25(15) . . ?
O5 Ge3 O7 113.88(15) . . ?
O6 Ge3 Na1 68.22(14) . 3_456 ?
O6 Ge3 Na1 126.95(13) . . ?
O6 Ge3 O4 115.54(16) . . ?
O6 Ge3 O5 113.16(18) . . ?
O6 Ge3 O7 106.03(17) . . ?
O7 Ge3 Na1 143.72(12) . 3_456 ?
O7 Ge3 Na1 127.01(12) . . ?
Sn1 Na1 Sn1 112.98(6) 5_766 3_456 ?
Ge1 Na1 Sn1 57.08(4) 3_456 3_456 ?
Ge1 Na1 Sn1 153.04(8) 3_456 5_766 ?
Ge1 Na1 Sn1 57.08(4) 5_666 5_766 ?
Ge1 Na1 Sn1 153.76(8) 5_666 3_456 ?
Ge1 Na1 Ge1 119.10(7) 3_456 5_666 ?
Ge3 Na1 Sn1 56.68(4) 3_556 3_456 ?
Ge3 Na1 Sn1 100.84(6) . 5_766 ?
Ge3 Na1 Sn1 58.12(4) 3_556 5_766 ?
Ge3 Na1 Sn1 123.81(7) . 3_456 ?
Ge3 Na1 Ge1 112.58(7) 3_556 3_456 ?
Ge3 Na1 Ge1 114.10(6) 3_556 5_666 ?
Ge3 Na1 Ge1 105.06(6) . 3_456 ?
Ge3 Na1 Ge1 82.39(5) . 5_666 ?
Ge3 Na1 Ge3 120.47(8) . 3_556 ?
O2 Na1 Sn1 33.33(8) 7_755 3_456 ?
O2 Na1 Sn1 117.52(11) 7_755 5_766 ?
O2 Na1 Ge1 69.46(9) 7_755 3_456 ?
O2 Na1 Ge1 170.52(12) 7_755 5_666 ?
O2 Na1 Ge3 91.55(10) 7_755 . ?
O2 Na1 Ge3 62.91(9) 7_755 3_556 ?
O2 Na1 O4 99.46(12) 7_755 3_456 ?
O3 Na1 Sn1 34.46(8) 5_666 5_766 ?
O3 Na1 Sn1 130.91(11) 5_666 3_456 ?
O3 Na1 Ge1 129.60(12) 5_666 3_456 ?
O3 Na1 Ge1 27.58(8) 5_666 5_666 ?
O3 Na1 Ge3 87.49(10) 5_666 3_556 ?
O3 Na1 Ge3 102.38(11) 5_666 . ?
O3 Na1 O2 150.30(15) 5_666 7_755 ?
O3 Na1 O4 104.88(13) 5_666 3_456 ?
O3 Na1 O4 81.02(12) 5_666 . ?
O4 Na1 Sn1 87.21(9) 3_456 3_456 ?
O4 Na1 Sn1 129.28(11) . 3_456 ?
O4 Na1 Sn1 69.03(8) . 5_766 ?
O4 Na1 Sn1 138.45(11) 3_456 5_766 ?
O4 Na1 Ge1 72.81(9) . 5_666 ?
O4 Na1 Ge1 31.29(7) 3_456 3_456 ?
O4 Na1 Ge1 88.47(9) 3_456 5_666 ?
O4 Na1 Ge1 137.65(11) . 3_456 ?
O4 Na1 Ge3 33.06(8) . . ?
O4 Na1 Ge3 138.17(11) 3_456 3_556 ?
O4 Na1 Ge3 94.81(10) . 3_556 ?
O4 Na1 Ge3 96.13(10) 3_456 . ?
O4 Na1 O2 98.17(13) . 7_755 ?
O4 Na1 O4 126.24(14) . 3_456 ?
O5 Na1 Sn1 86.91(10) 3_556 3_456 ?
O5 Na1 Sn1 104.90(10) . 3_456 ?
O5 Na1 Sn1 33.99(8) 3_556 5_766 ?
O5 Na1 Sn1 132.64(11) . 5_766 ?
O5 Na1 Ge1 97.43(10) . 5_666 ?
O5 Na1 Ge1 72.81(9) . 3_456 ?
O5 Na1 Ge1 143.53(11) 3_556 3_456 ?
O5 Na1 Ge1 90.14(9) 3_556 5_666 ?
O5 Na1 Ge3 136.08(12) . 3_556 ?
O5 Na1 Ge3 32.25(8) . . ?
O5 Na1 Ge3 30.98(8) 3_556 3_556 ?
O5 Na1 Ge3 99.72(11) 3_556 . ?
O5 Na1 O2 80.90(13) . 7_755 ?
O5 Na1 O2 83.69(12) 3_556 7_755 ?
O5 Na1 O3 123.91(14) . 5_666 ?
O5 Na1 O3 68.28(12) 3_556 5_666 ?
O5 Na1 O4 68.44(12) 3_556 . ?
O5 Na1 O4 65.17(12) . . ?
O5 Na1 O4 163.76(15) 3_556 3_456 ?
O5 Na1 O4 68.20(12) . 3_456 ?
O5 Na1 O5 128.00(14) . 3_556 ?
Sn1 Na2 Sn1 173.5(2) 7_755 6_456 ?
Sn1 Na2 Na3 60.70(4) 6_456 6_556 ?
Sn1 Na2 Na3 122.62(8) 7_755 6_556 ?
Sn1 Na2 Na3 60.70(4) 7_755 6_656 ?
Sn1 Na2 Na3 122.62(8) 6_456 6_656 ?
Na3 Na2 Na3 127.9(3) 6_556 6_656 ?
O3 Na2 Sn1 139.30(12) 7_655 6_456 ?
O3 Na2 Sn1 38.13(7) 7_655 7_755 ?
O3 Na2 Sn1 139.30(12) 6_556 7_755 ?
O3 Na2 Sn1 38.13(7) 6_556 6_456 ?
O3 Na2 Na3 94.66(7) 6_556 6_656 ?
O3 Na2 Na3 94.66(7) 7_655 6_556 ?
O3 Na2 Na3 98.06(7) 7_655 6_656 ?
O3 Na2 Na3 98.06(7) 6_556 6_556 ?
O3 Na2 O3 150.8(3) 7_655 6_556 ?
O6 Na2 Sn1 38.49(7) 7_655 7_755 ?
O6 Na2 Sn1 148.0(2) 7_655 6_456 ?
O6 Na2 Sn1 148.0(2) 6_556 7_755 ?
O6 Na2 Sn1 38.49(7) 6_556 6_456 ?
O6 Na2 Na3 101.17(17) 6_556 6_656 ?
O6 Na2 Na3 101.17(17) 7_655 6_556 ?
O6 Na2 Na3 45.56(9) 6_556 6_556 ?
O6 Na2 Na3 45.56(9) 7_655 6_656 ?
O6 Na2 O3 62.24(10) 7_655 7_655 ?
O6 Na2 O3 139.11(15) 7_655 6_556 ?
O6 Na2 O3 62.24(10) 6_556 6_556 ?
O6 Na2 O3 139.11(15) 6_556 7_655 ?
O6 Na2 O6 109.6(2) 6_556 7_655 ?
O8 Na2 Sn1 138.08(17) 4 7_755 ?
O8 Na2 Sn1 38.10(9) 4 6_456 ?
O8 Na2 Sn1 38.10(9) . 7_755 ?
O8 Na2 Sn1 138.08(17) . 6_456 ?
O8 Na2 Na3 160.52(10) . 6_556 ?
O8 Na2 Na3 160.51(10) 4 6_656 ?
O8 Na2 Na3 52.49(14) . 6_656 ?
O8 Na2 Na3 52.49(14) 4 6_556 ?
O8 Na2 O3 101.33(15) . 6_556 ?
O8 Na2 O3 101.33(15) 4 7_655 ?
O8 Na2 O3 67.18(13) 4 6_556 ?
O8 Na2 O3 67.18(13) . 7_655 ?
O8 Na2 O6 64.80(12) 4 6_556 ?
O8 Na2 O6 149.70(16) 4 7_655 ?
O8 Na2 O6 64.80(12) . 7_655 ?
O8 Na2 O6 149.70(16) . 6_556 ?
O8 Na2 O8 135.4(3) . 4 ?
Sn1 Na3 Sn1 118.98(18) 1_455 4_655 ?
Sn1 Na3 Na1 55.98(3) 4_655 2_554 ?
Sn1 Na3 Na1 153.95(8) 1_455 2_554 ?
Sn1 Na3 Na2 54.82(6) 4_655 6_566 ?
Sn1 Na3 Na2 54.82(6) 1_455 6_666 ?
Sn1 Na3 Na2 97.47(12) 1_455 6_566 ?
Sn1 Na3 Na2 97.47(12) 4_655 6_666 ?
Ge2 Na3 Sn1 59.49(9) 6_566 1_455 ?
Ge2 Na3 Sn1 59.49(9) 6_566 4_655 ?
Ge2 Na3 Na1 109.50(9) 6_566 2_554 ?
Ge2 Na3 Na2 63.93(13) 6_566 6_566 ?
Ge2 Na3 Na2 63.93(13) 6_566 6_666 ?
Na2 Na3 Na1 99.28(4) 6_666 2_554 ?
Na2 Na3 Na1 97.60(4) 6_566 2_554 ?
Na2 Na3 Na2 127.9(3) 6_666 6_566 ?
O1 Na3 Sn1 110.18(18) 4_655 1_455 ?
O1 Na3 Sn1 110.18(18) 1_455 4_655 ?
O1 Na3 Sn1 35.13(8) 1_455 1_455 ?
O1 Na3 Sn1 35.13(8) 4_655 4_655 ?
O1 Na3 Ge2 62.24(14) 4_655 6_566 ?
O1 Na3 Ge2 62.24(14) 1_455 6_566 ?
O1 Na3 Na1 49.21(9) 4_655 2_554 ?
O1 Na3 Na1 164.65(13) 1_455 2_554 ?
O1 Na3 Na2 67.31(10) 4_655 6_666 ?
O1 Na3 Na2 88.64(13) 1_455 6_666 ?
O1 Na3 Na2 67.31(10) 1_455 6_566 ?
O1 Na3 Na2 88.64(13) 4_655 6_566 ?
O1 Na3 O1 124.5(3) 1_455 4_655 ?
O1 Na3 O8 74.65(17) 4_655 7_665 ?
O1 Na3 O8 74.65(17) 1_455 6_566 ?
O1 Na3 O8 58.10(14) 4_655 6_566 ?
O1 Na3 O8 58.10(14) 1_455 7_665 ?
O6 Na3 Sn1 35.54(9) 4 4_655 ?
O6 Na3 Sn1 144.2(2) 4 1_455 ?
O6 Na3 Sn1 144.2(2) . 4_655 ?
O6 Na3 Sn1 35.54(9) . 1_455 ?
O6 Na3 Ge2 89.83(16) 4 6_566 ?
O6 Na3 Ge2 89.83(16) . 6_566 ?
O6 Na3 Na1 48.85(10) 4 2_554 ?
O6 Na3 Na1 131.30(12) . 2_554 ?
O6 Na3 Na2 49.14(10) 4 6_566 ?
O6 Na3 Na2 49.14(10) . 6_666 ?
O6 Na3 Na2 130.66(15) 4 6_666 ?
O6 Na3 Na2 130.66(15) . 6_566 ?
O6 Na3 O1 116.35(15) 4 1_455 ?
O6 Na3 O1 63.47(11) 4 4_655 ?
O6 Na3 O1 116.35(15) . 4_655 ?
O6 Na3 O1 63.47(11) . 1_455 ?
O6 Na3 O6 179.7(3) 4 . ?
O6 Na3 O8 59.20(12) . 7_665 ?
O6 Na3 O8 120.5(2) . 6_566 ?
O6 Na3 O8 59.20(12) 4 6_566 ?
O6 Na3 O8 120.5(2) 4 7_665 ?
O8 Na3 Sn1 86.90(16) 6_566 1_455 ?
O8 Na3 Sn1 35.87(8) 6_566 4_655 ?
O8 Na3 Sn1 35.87(8) 7_665 1_455 ?
O8 Na3 Sn1 86.90(16) 7_665 4_655 ?
O8 Na3 Ge2 31.63(9) 6_566 6_566 ?
O8 Na3 Ge2 31.63(9) 7_665 6_566 ?
O8 Na3 Na1 122.43(12) 7_665 2_554 ?
O8 Na3 Na1 91.85(8) 6_566 2_554 ?
O8 Na3 Na2 38.41(11) 7_665 6_666 ?
O8 Na3 Na2 92.02(18) 7_665 6_566 ?
O8 Na3 Na2 38.41(11) 6_566 6_566 ?
O8 Na3 Na2 92.02(18) 6_566 6_666 ?
O8 Na3 O8 63.27(19) 7_665 6_566 ?
Sn1 O1 Na3 93.87(12) . 1_655 ?
Ge1 O1 Sn1 126.83(18) . . ?
Ge1 O1 Na3 137.88(17) . 1_655 ?
Sn1 O2 Na1 101.74(14) 5_766 7_765 ?
Ge1 O2 Sn1 128.55(17) . 5_766 ?
Ge1 O2 Na1 127.92(17) . 7_765 ?
Sn1 O3 Na1 101.02(14) 1_455 5_666 ?
Sn1 O3 Na2 82.12(12) 1_455 6_666 ?
Ge1 O3 Sn1 126.38(17) . 1_455 ?
Ge1 O3 Na1 110.20(17) . 5_666 ?
Ge1 O3 Na2 106.34(17) . 6_666 ?
Na1 O3 Na2 130.63(18) 5_666 6_666 ?
Ge1 O4 Na1 134.77(17) . . ?
Ge1 O4 Na1 98.02(15) . 3_556 ?
Ge3 O4 Ge1 121.16(19) . . ?
Ge3 O4 Na1 92.73(14) . . ?
Ge3 O4 Na1 118.06(16) . 3_556 ?
Na1 O4 Na1 89.61(11) . 3_556 ?
Sn1 O5 Na1 102.75(15) 7_755 3_456 ?
Sn1 O5 Na1 127.11(16) 7_755 . ?
Ge3 O5 Sn1 124.34(18) . 7_755 ?
Ge3 O5 Na1 101.30(16) . 3_456 ?
Ge3 O5 Na1 98.43(15) . . ?
Na1 O5 Na1 96.81(12) . 3_456 ?
Sn1 O6 Na2 84.94(16) 1_455 6_666 ?
Sn1 O6 Na3 97.09(17) 1_455 . ?
Ge3 O6 Sn1 121.21(18) . 1_455 ?
Ge3 O6 Na2 106.89(19) . 6_666 ?
Ge3 O6 Na3 140.2(2) . . ?
Na3 O6 Na2 85.30(13) . 6_666 ?
Ge3 O7 Ge2 115.24(19) . . ?
Sn1 O8 Na2 99.28(15) 7_755 . ?
Sn1 O8 Na3 88.96(13) 7_755 6_656 ?
Ge2 O8 Sn1 126.29(19) . 7_755 ?
Ge2 O8 Na2 134.2(2) . . ?
Ge2 O8 Na3 87.72(16) . 6_656 ?
Na2 O8 Na3 89.10(18) . 6_656 ?

loop_
_geom_torsion_atom_site_label_1
_geom_torsion_atom_site_label_2
_geom_torsion_atom_site_label_3
_geom_torsion_atom_site_label_4
_geom_torsion
_geom_torsion_site_symmetry_1
_geom_torsion_site_symmetry_2
_geom_torsion_site_symmetry_3
_geom_torsion_site_symmetry_4
_geom_torsion_publ_flag
Na1 Ge1 O1 Sn1 -80.9(2) 3_556 . . . ?
Na1 Ge1 O1 Sn1 80.3(2) 5_666 . . . ?
Na1 Ge1 O1 Na3 -117.2(3) 5_666 . . 1_655 ?
Na1 Ge1 O1 Na3 81.7(3) 3_556 . . 1_655 ?
Na1 Ge1 O2 Sn1 137.3(3) 5_666 . . 5_766 ?
Na1 Ge1 O2 Sn1 -46.9(2) 3_556 . . 5_766 ?
Na1 Ge1 O2 Na1 115.06(19) 3_556 . . 7_765 ?
Na1 Ge1 O2 Na1 -60.77(17) 5_666 . . 7_765 ?
Na1 Ge1 O3 Sn1 54.8(4) 3_556 . . 1_455 ?
Na1 Ge1 O3 Sn1 -121.6(3) 5_666 . . 1_455 ?
Na1 Ge1 O3 Na1 176.37(18) 3_556 . . 5_666 ?
Na1 Ge1 O3 Na2 -37.4(4) 3_556 . . 6_666 ?
Na1 Ge1 O3 Na2 146.2(2) 5_666 . . 6_666 ?
Na1 Ge1 O4 Ge3 71.1(3) 5_666 . . . ?
Na1 Ge1 O4 Ge3 -129.8(3) 3_556 . . . ?
Na1 Ge1 O4 Na1 -159.12(12) 5_666 . . 3_556 ?
Na1 Ge1 O4 Na1 97.5(3) 3_556 . . . ?
Na1 Ge1 O4 Na1 -61.6(3) 5_666 . . . ?
Na1 Ge3 O4 Ge1 -148.5(3) . . . . ?
Na1 Ge3 O4 Ge1 -104.6(2) 3_456 . . . ?
Na1 Ge3 O4 Na1 91.02(16) . . . 3_556 ?
Na1 Ge3 O4 Na1 134.90(15) 3_456 . . 3_556 ?
Na1 Ge3 O4 Na1 43.89(13) 3_456 . . . ?
Na1 Ge3 O5 Sn1 -147.1(3) . . . 7_755 ?
Na1 Ge3 O5 Sn1 114.1(3) 3_456 . . 7_755 ?
Na1 Ge3 O5 Na1 -98.74(15) 3_456 . . . ?
Na1 Ge3 O5 Na1 98.74(15) . . . 3_456 ?
Na1 Ge3 O6 Sn1 41.1(3) . . . 1_455 ?
Na1 Ge3 O6 Sn1 80.2(2) 3_456 . . 1_455 ?
Na1 Ge3 O6 Na2 174.57(18) 3_456 . . 6_666 ?
Na1 Ge3 O6 Na2 135.51(14) . . . 6_666 ?
Na1 Ge3 O6 Na3 -82.1(3) 3_456 . . . ?
Na1 Ge3 O6 Na3 -121.2(3) . . . . ?
Na1 Ge3 O7 Ge2 7.7(3) 3_456 . . . ?
Na1 Ge3 O7 Ge2 113.96(17) . . . . ?
Na3 Ge2 O7 Ge3 -95.66(19) 6_656 . . . ?
Na3 Ge2 O8 Sn1 87.0(2) 6_656 . . 7_755 ?
Na3 Ge2 O8 Na2 -86.5(3) 6_656 . . . ?
O1 Ge1 O2 Sn1 -111.3(2) . . . 5_766 ?
O1 Ge1 O2 Na1 50.6(3) . . . 7_765 ?
O1 Ge1 O3 Sn1 130.2(2) . . . 1_455 ?
O1 Ge1 O3 Na1 -108.24(18) . . . 5_666 ?
O1 Ge1 O3 Na2 37.9(2) . . . 6_666 ?
O1 Ge1 O4 Ge3 -84.8(2) . . . . ?
O1 Ge1 O4 Na1 45.04(17) . . . 3_556 ?
O1 Ge1 O4 Na1 142.5(2) . . . . ?
O2 Ge1 O1 Sn1 -0.6(3) . . . . ?
O2 Ge1 O1 Na3 162.0(3) . . . 1_655 ?
O2 Ge1 O3 Sn1 -101.9(2) . . . 1_455 ?
O2 Ge1 O3 Na1 19.7(2) . . . 5_666 ?
O2 Ge1 O3 Na2 165.94(16) . . . 6_666 ?
O2 Ge1 O4 Ge3 153.9(2) . . . . ?
O2 Ge1 O4 Na1 -76.25(17) . . . 3_556 ?
O2 Ge1 O4 Na1 21.2(3) . . . . ?
O3 Ge1 O1 Sn1 125.8(2) . . . . ?
O3 Ge1 O1 Na3 -71.7(3) . . . 1_655 ?
O3 Ge1 O2 Sn1 123.5(2) . . . 5_766 ?
O3 Ge1 O2 Na1 -74.6(2) . . . 7_765 ?
O3 Ge1 O4 Ge3 31.4(3) . . . . ?
O3 Ge1 O4 Na1 161.25(15) . . . 3_556 ?
O3 Ge1 O4 Na1 -101.3(3) . . . . ?
O4 Ge1 O1 Sn1 -117.6(2) . . . . ?
O4 Ge1 O1 Na3 45.0(3) . . . 1_655 ?
O4 Ge1 O2 Sn1 1.9(3) . . . 5_766 ?
O4 Ge1 O2 Na1 163.8(2) . . . 7_765 ?
O4 Ge1 O3 Sn1 18.8(3) . . . 1_455 ?
O4 Ge1 O3 Na1 140.42(16) . . . 5_666 ?
O4 Ge1 O3 Na2 -73.39(19) . . . 6_666 ?
O4 Ge3 O5 Sn1 -141.1(2) . . . 7_755 ?
O4 Ge3 O5 Na1 5.99(17) . . . . ?
O4 Ge3 O5 Na1 104.72(16) . . . 3_456 ?
O4 Ge3 O6 Sn1 -22.0(3) . . . 1_455 ?
O4 Ge3 O6 Na2 72.4(2) . . . 6_666 ?
O4 Ge3 O6 Na3 175.7(3) . . . . ?
O4 Ge3 O7 Ge2 170.12(18) . . . . ?
O5 Ge3 O4 Ge1 -154.1(2) . . . . ?
O5 Ge3 O4 Na1 85.42(19) . . . 3_556 ?
O5 Ge3 O4 Na1 -5.60(16) . . . . ?
O5 Ge3 O6 Sn1 96.7(2) . . . 1_455 ?
O5 Ge3 O6 Na2 -168.92(16) . . . 6_666 ?
O5 Ge3 O6 Na3 -65.6(3) . . . . ?
O5 Ge3 O7 Ge2 57.9(2) . . . . ?
O6 Ge3 O4 Ge1 -30.0(3) . . . . ?
O6 Ge3 O4 Na1 118.48(17) . . . . ?
O6 Ge3 O4 Na1 -150.50(19) . . . 3_556 ?
O6 Ge3 O5 Sn1 93.2(2) . . . 7_755 ?
O6 Ge3 O5 Na1 -119.64(16) . . . . ?
O6 Ge3 O5 Na1 -20.90(19) . . . 3_456 ?
O6 Ge3 O7 Ge2 -67.1(2) . . . . ?
O7 Ge2 O7 Ge3 84.34(19) 4_655 . . . ?
O7 Ge2 O8 Sn1 -149.0(2) 4_655 . . 7_755 ?
O7 Ge2 O8 Sn1 -33.6(3) . . . 7_755 ?
O7 Ge2 O8 Na2 37.4(4) 4_655 . . . ?
O7 Ge2 O8 Na2 152.8(3) . . . . ?
O7 Ge2 O8 Na3 -120.65(13) . . . 6_656 ?
O7 Ge2 O8 Na3 123.94(13) 4_655 . . 6_656 ?
O7 Ge3 O4 Ge1 86.3(2) . . . . ?
O7 Ge3 O4 Na1 -34.1(2) . . . 3_556 ?
O7 Ge3 O4 Na1 -125.15(14) . . . . ?
O7 Ge3 O5 Sn1 -27.9(3) . . . 7_755 ?
O7 Ge3 O5 Na1 119.18(16) . . . . ?
O7 Ge3 O5 Na1 -142.08(15) . . . 3_456 ?
O7 Ge3 O6 Sn1 -137.8(2) . . . 1_455 ?
O7 Ge3 O6 Na2 -43.40(19) . . . 6_666 ?
O7 Ge3 O6 Na3 59.9(3) . . . . ?
O8 Ge2 O7 Ge3 -158.9(2) 4_655 . . . ?
O8 Ge2 O7 Ge3 -27.9(2) . . . . ?
O8 Ge2 O8 Sn1 87.0(2) 4_655 . . 7_755 ?
O8 Ge2 O8 Na2 -86.5(3) 4_655 . . . ?
O8 Ge2 O8 Na3 0.001(0) 4_655 . . 6_656 ?

_shelx_res_file                  
;
TITL 1 OLEX2: imported from CIF
    1.res
    created by SHELXL-2018/3 at 14:36:30 on 25-Jul-2023
CELL 0.71073 6.5063 11.912 18.995 90 90 90
ZERR 4 0.0013 0.002 0.004 0 0 0
LATT 1
SYMM 0.5-X,0.5-Y,0.5+Z
SYMM 0.5+X,0.5-Y,-Z
SYMM -X,+Y,0.5-Z
SFAC Ge Na O Sn
UNIT 20 16 64 8

L.S. 8 0 0
PLAN  5
CONF
MORE -1
fmap 2 53
ACTA
OMIT -4 65
REM <olex2.extras>
REM <HklSrc "%.\\1.hkl">
REM </olex2.extras>

WGHT    0.047200
FVAR       0.15050
SN1   4    1.211386    0.533019    0.391253    11.00000    0.00828    0.00862 =
         0.00935    0.00018   -0.00011    0.00072
GE1   1    0.713738    0.499772    0.432839    11.00000    0.00844    0.00983 =
         0.00960   -0.00032   -0.00037   -0.00007
GE2   1    0.500000    0.160365    0.250000    10.50000    0.01026    0.01081 =
         0.01010    0.00000    0.00175    0.00000
GE3   1    0.468106    0.294718    0.381469    11.00000    0.01020    0.00830 =
         0.01003   -0.00056   -0.00006   -0.00001
NA1   2    0.510222    0.231754    0.545322    11.00000    0.02255    0.02448 =
         0.02807   -0.00308   -0.00391   -0.00417
NA2   2    0.000000    0.017469    0.250000    10.50000    0.04188    0.08763 =
         0.07157    0.00000   -0.03678    0.00000
NA3   2    0.000000    0.383870    0.250000    10.50000    0.17561    0.06301 =
         0.07695    0.00000   -0.08437    0.00000
O1    3    0.915567    0.490467    0.373659    11.00000    0.00779    0.02465 =
         0.01244   -0.00415    0.00130   -0.00291
O2    3    0.781535    0.550421    0.515475    11.00000    0.01947    0.01182 =
         0.00907   -0.00027   -0.00086   -0.00254
O3    3    0.514434    0.577952    0.395658    11.00000    0.00750    0.01512 =
         0.02227    0.00639   -0.00221    0.00037
O4    3    0.638676    0.356849    0.441486    11.00000    0.01521    0.00899 =
         0.01488   -0.00114   -0.00360   -0.00336
O5    3    0.356411    0.187735    0.430080    11.00000    0.01736    0.00913 =
         0.01381   -0.00145    0.00232   -0.00530
O6    3    0.289861    0.384529    0.343815    11.00000    0.02274    0.01586 =
         0.01536   -0.00544   -0.00854    0.00925
O7    3    0.624016    0.247223    0.312141    11.00000    0.01388    0.01518 =
         0.01314   -0.00621    0.00126   -0.00246
O8    3    0.298753    0.089223    0.289258    11.00000    0.01312    0.02356 =
         0.01553    0.00673    0.00006   -0.00515
HKLF 4




REM  1 OLEX2: imported from CIF
REM wR2 = 0.0754, GooF = S = 0.993, Restrained GooF = 0.993 for all data
REM R1 = 0.0321 for 2171 Fo > 4sig(Fo) and 0.0472 for all 2666 data
REM 124 parameters refined using 0 restraints

END

WGHT      0.0472      0.0000

REM Highest difference peak  1.816,  deepest hole -2.078,  1-sigma level  0.296
Q1    1   0.0000  0.3189  0.2500  10.50000  0.05    1.82
Q2    1   1.1434  0.5064  0.4432  11.00000  0.05    0.99
Q3    1  -0.0478  0.1004  0.2722  11.00000  0.05    0.97
Q4    1   0.8774  0.5030  0.5199  11.00000  0.05    0.96
Q5    1   1.1438  0.5413  0.3384  11.00000  0.05    0.96
;
_shelx_res_checksum              44179
_shelx_hkl_file                  
;
   2   0   0  384.26   16.40
  -2   0   0  394.26   16.90
  -4   0   0 5331.37   28.10
   4   0   0 5184.28   32.20
   6   0   0  225.38   14.70
  -6   0   0  238.78   11.70
   8   0   0    6.90   15.50
  -8   0   0    7.60   11.70
  10   0   0  366.96   15.50
 -10   0   0  361.96   17.20
  -1   1   0   37.90   21.30
  -1  -1   0   39.00   23.10
   1  -1   0   42.40   21.20
   1   1   0   42.40   26.60
   3   1   0  358.36   17.20
  -3   1   0  361.56   14.20
  -3  -1   0  365.96   13.80
   3  -1   0  355.36   15.60
   5   1   0   90.29   14.20
  -5  -1   0  102.79   10.40
  -5   1   0   94.49   10.80
   5  -1   0   89.09   11.30
   7  -1   0  121.29   15.90
  -7   1   0  128.49   10.20
   7   1   0  109.19   12.80
  -7  -1   0  118.69   11.50
   9   1   0   68.59   15.70
  -9  -1   0   70.69   13.70
   0   2   0 2390.96   53.59
   0   2   0 2577.54   33.00
   0  -2   0 2458.35   32.40
   0  -2   0 2496.15   49.60
  -2  -2   0 9625.64   58.39
   2  -2   0 9642.63   44.00
  -2   2   0 9999.00   45.60
   2   2   0 9549.74   64.89
   4  -2   0  464.85   14.90
   4   2   0  429.86   17.20
  -4  -2   0  474.85   13.60
  -4   2   0  495.35   13.70
   6   2   0  425.26   16.20
  -6   2   0  425.96   10.90
  -6  -2   0  421.26   12.20
   6  -2   0  393.46   13.20
   8   2   0  257.87   15.20
  -8  -2   0  282.97   13.20
   8  -2   0  254.27   15.70
  -8   2   0  298.27   11.00
 -10  -2   0  287.17   17.30
  10  -2   0  282.97   17.50
 -10   2   0  328.87   17.30
  -1   3   0   52.29   15.60
   1  -3   0   55.29   13.70
  -1   3   0   52.39    9.10
  -3  -3   0  149.59   14.00
   3   3   0  148.09   17.60
  -3   3   0  157.28   11.00
   3  -3   0  163.58   12.90
  -5  -3   0    8.40   11.80
   5  -3   0   -5.60   13.10
  -5   3   0   11.80   11.40
   5   3   0   10.30   14.00
   7  -3   0  194.48   12.90
   7   3   0  194.98   13.20
  -7   3   0  205.48   10.50
  -7  -3   0  203.58   11.30
   9  -3   0   22.30   16.30
  -9  -3   0   12.50   13.40
   9   3   0   10.10   14.00
   0  -4   0 4673.93   27.90
   0  -4   0 4820.02   44.50
   0   4   0 4579.44   51.49
   0   4   0 4866.51   28.40
  -2  -4   0 1138.19   35.30
   2   4   0 1062.69   35.70
  -2   4   0 1138.49   19.70
  -2   4   0 1085.99   11.00
   2  -4   0 1150.28   18.00
   4  -4   0  725.93   14.00
   4   4   0  739.43   19.90
  -4   4   0  760.52   14.50
  -4  -4   0  735.13   16.30
   6  -4   0   68.29   13.30
  -6  -4   0   68.39   10.30
  -6   4   0   75.59   10.40
   6   4   0   67.29   12.00
  -8   4   0  115.49   13.70
   8  -4   0   89.29   13.80
  -8  -4   0  107.79   12.70
   8   4   0   97.49   15.00
 -10   4   0   93.89   17.50
 -10  -4   0   87.09   18.90
   1  -5   0  114.39   11.60
  -1   5   0  123.19    7.10
  -1  -5   0  106.69    9.70
   1  -5   0  119.79    8.40
  -1   5   0  109.39   14.70
   1   5   0  112.29   32.70
   3  -5   0  189.08    9.70
   3   5   0  188.38   20.70
  -3   5   0  196.98   13.20
  -3   5   0  187.68    7.00
  -3  -5   0  194.48   18.60
  -5   5   0  124.49   10.10
   5  -5   0  120.19    9.90
   5   5   0  125.09   14.60
  -5  -5   0  120.89   12.50
   7  -5   0   33.30   14.00
  -7   5   0   28.10   12.90
  -7  -5   0   31.60   13.70
   7   5   0   37.50   12.40
  -9  -5   0   12.60   14.30
   9  -5   0   13.70   15.60
   0  -6   0 1935.71   17.40
   0  -6   0 1936.91   25.10
   0   6   0 1834.42   31.30
   0   6   0 2026.60   17.40
   2  -6   0  421.66   12.30
  -2   6   0  407.56    8.50
  -2   6   0  424.66   15.30
  -2  -6   0  435.26   14.50
  -4   6   0  391.66    8.60
  -4  -6   0  406.86   19.40
   4  -6   0  386.76   10.90
  -4   6   0  413.36   14.50
   4   6   0  398.96   21.20
  -6   6   0   -2.10   10.10
   6   6   0    3.50   12.80
  -6  -6   0    3.60   12.90
   6  -6   0   -2.00   10.00
  -8  -6   0    7.90   14.80
   1   7   0  528.45   38.10
   1  -7   0  520.95   12.80
  -1   7   0  496.45   17.40
   1  -7   0  531.15    9.80
  -1  -7   0  505.95   11.70
  -1   7   0  525.55    9.70
   1   7   0  532.55   28.10
  -3  -7   0 1892.41   18.10
   3  -7   0 1664.23   14.80
  -3   7   0 1702.33   12.50
  -3   7   0 1715.23   19.40
  -5  -7   0    8.80   16.30
   5   7   0    9.60   15.70
  -5   7   0   12.20   13.50
  -5   7   0   18.70    7.60
   5  -7   0   11.90   11.30
  -7  -7   0  232.58   17.20
  -7   7   0  249.48   12.30
   7  -7   0  220.78   11.80
  -9   7   0   34.20   10.80
  -9  -7   0   26.90   16.60
   0   8   0  139.69   18.00
   0   8   0  156.38    8.30
   0  -8   0  146.99    8.20
   2  -8   0  675.63   12.30
  -2  -8   0  698.03   13.50
  -2   8   0  665.93   16.60
  -2   8   0  705.33   10.20
   4  -8   0    4.00   10.20
  -4   8   0    6.00    7.40
  -4   8   0    7.90   13.20
  -6   8   0   61.79    6.80
  -6  -8   0   68.89   19.00
  -6   8   0   74.29   14.00
   6  -8   0   58.49    9.80
  -8   8   0   16.60   12.80
  -8   8   0    1.30    9.70
  -8  -8   0    7.10   18.00
   8  -8   0   -1.40   12.00
  -1   9   0  482.85   10.10
   1  -9   0  462.75    9.90
  -1  -9   0  461.95   12.20
   1   9   0  485.15   25.80
   1  -9   0  452.25   11.80
   1   9   0  468.35   31.00
  -1   9   0  467.45   17.20
  -3   9   0   30.20   13.00
  -3  -9   0   44.40    9.40
   3  -9   0   36.70    9.30
  -3   9   0   36.50    6.30
   5  -9   0 1087.09   14.20
  -5   9   0 1054.69    9.80
  -5  -9   0 1217.78   12.70
  -5   9   0 1125.69   17.50
  -7   9   0  153.48    7.90
   7  -9   0  171.08   11.30
  -9   9   0   -3.10   12.20
   9  -9   0  137.79   15.00
   0 -10   0  233.98   10.10
   0  10   0  244.28   18.00
   0  10   0  259.27   10.30
  -2 -10   0   28.80   11.20
  -2  10   0   29.90    8.40
  -2  10   0   28.20   13.90
   2 -10   0   34.50    9.20
  -4  10   0   59.79    8.10
  -4  10   0   54.29   14.70
   4 -10   0   63.89   10.40
  -4 -10   0   57.59   11.00
  -6  10   0   30.20   14.80
   6 -10   0    1.10    9.40
  -6 -10   0   11.60   11.00
  -6  10   0   -2.20    8.50
  -8  10   0   26.60   10.50
   8 -10   0   41.60   12.40
  -1 -11   0   52.69    8.30
  -1  11   0   62.89    7.20
  -1  11   0   68.69   15.40
   1 -11   0   61.79    7.20
  -3  11   0  211.88    7.70
   3 -11   0  200.08    8.60
  -3  11   0  224.28   15.20
  -3 -11   0  229.08   10.00
  -5  11   0  745.53   11.10
  -5 -11   0  832.52   13.50
   5 -11   0  785.52   13.90
  -5  11   0  801.22   17.80
  -7 -11   0  391.96   11.50
  -7  11   0  360.06    9.60
   0  12   0  101.19   16.20
   0  12   0  117.79    8.90
   0 -12   0   91.79    8.70
  -2  12   0   10.30   12.80
  -2 -12   0    9.40    9.00
   2 -12   0   13.90    9.30
  -2  12   0   -1.30    7.10
  -4  12   0   48.90    8.70
  -4  12   0   36.20   15.50
   4 -12   0   50.09   10.50
  -4 -12   0   46.70   11.20
  -6  12   0    7.20    9.60
  -6 -12   0   -6.80   11.40
   8 -12   0   24.00   16.00
  -8  12   0   23.10   11.70
  -8 -12   0   15.90   13.20
  -8  12   0   26.90   16.70
   1 -13   0   19.20    7.90
  -1  13   0   24.00    8.00
  -1 -13   0   24.80    8.80
  -1  13   0   20.70   14.50
  -3  13   0 1067.29   18.20
  -3  13   0 1117.69   11.20
   3 -13   0 1076.39   13.90
  -3 -13   0 1156.18   13.10
  -5 -13   0  319.37   10.30
  -5  13   0  305.97   17.70
  -5  13   0  307.37    9.00
   7 -13   0  480.55   13.80
  -7  13   0  265.47   13.40
  -7 -13   0  261.67   14.50
   0  14   0    5.60   18.80
   0 -14   0    5.70   10.30
  -2  14   0  326.77    9.20
  -2  14   0  310.97   16.90
  -2 -14   0  327.27   10.60
  -4 -14   0   12.70   12.20
  -4  14   0   11.10   15.60
  -4  14   0   12.20    9.80
  -6 -14   0    9.60    9.90
   6 -14   0   18.00   13.10
  -6  14   0    1.50    8.90
  -1 -15   0  634.94   11.60
  -1  15   0  666.33   20.20
  -1  15   0  704.13   11.30
   1 -15   0  580.04   10.80
  -3 -15   0   24.20   12.20
  -3  15   0   37.70   10.40
  -5 -15   0  987.30   14.60
  -5  15   0  959.70   14.60
   0 -16   0  146.49   12.00
  -2 -16   0   20.10   12.50
  -2  16   0    8.00   11.20
  -4  16   0  100.09    9.90
  -4 -16   0  109.09   11.20
  -1  17   0   39.70   20.40
  -1 -17   0   36.70   12.70
  -3 -17   0  440.26   15.00
  -3  17   0  413.06   19.00
  -3  17   0  464.65   13.80
   0 -18   0   35.40   13.10
  -2 -18   0   -3.90   13.50
  -2  18   0   15.10   20.60
  -2  18   0   12.40   13.30
  -1 -19   0   35.00   11.90
  -1   1   1 1580.84   33.30
  -1   1  -1 1573.64   30.10
   1   1   1 1539.05   38.00
   1  -1  -1 1596.84   33.40
   1  -1   1 1600.04   30.20
  -1  -1   1 1550.34   37.50
   1   1  -1 1464.75   40.80
  -1  -1  -1 1642.24   37.70
  -2  -1  -1  119.09   15.10
   2   1  -1  117.39   20.10
  -2  -1   1  109.09   15.40
   2   1   1  109.99   17.00
   2  -1  -1  122.29   15.00
  -2   1  -1  119.69   11.30
   2  -1   1  111.39   14.20
  -2   1   1  113.29   12.00
   3   1  -1   20.00   14.80
   3  -1   1   33.70   13.20
  -3   1  -1   30.00    9.60
   3  -1  -1   28.30   11.90
  -3   1   1   34.30   12.40
   3   1   1   31.40   13.60
  -3  -1   1   24.70    9.50
  -3  -1  -1   35.40   11.50
   4   1   1   21.10   13.20
  -4  -1  -1   21.80   10.70
   4  -1   1   25.30   10.80
   4   1  -1   33.20   15.10
  -4   1   1   43.60   11.40
  -4   1  -1   37.00   11.30
   4  -1  -1   31.20   14.80
  -4  -1   1   28.00   11.00
  -5  -1  -1  294.07   11.70
   5  -1   1  294.67   14.20
  -5   1   1  326.67   12.00
   5   1  -1  297.77   15.80
  -5  -1   1  291.37   10.00
   5  -1  -1  287.97   12.50
   5   1   1  284.97   14.70
  -5   1  -1  322.97   11.90
  -6   1  -1  291.77   12.10
  -6   1   1  290.97   12.30
   6   1  -1  286.17   16.60
   6  -1   1  261.67   15.30
   6  -1  -1  267.57   13.60
  -6  -1   1  283.67   11.80
   6   1   1  269.17   15.80
  -6  -1  -1  272.07   11.60
  -7  -1   1   24.30   11.10
   7   1  -1    3.50   15.60
   7   1   1   13.30   14.80
   7  -1   1   20.50   14.90
   7  -1  -1   10.90   15.90
  -7   1   1   18.40    9.10
  -7  -1  -1   24.80   11.80
  -7   1  -1   14.40   11.30
  -8  -1   1   24.00   12.40
   8  -1   1   41.90   13.90
  -8   1  -1   32.30   12.40
  -8  -1  -1   34.70    9.70
   8   1  -1   35.40   15.10
  -8   1   1   27.10   12.20
   8   1   1   30.10   14.90
   8  -1  -1   14.00   17.20
  -9   1  -1   23.20   10.60
  -9  -1  -1   35.30   13.40
 -10  -1  -1   28.30   15.90
 -10   1   1   36.20   15.50
 -10   1  -1   23.90   15.60
 -10  -1   1   44.90   15.90
   0   2  -1  254.07   18.90
   0   2  -1  229.08   24.90
   0   2   1  261.07   19.30
   0   2   1  230.58   35.90
   0  -2  -1  244.28   19.10
   0  -2   1  245.38   18.90
   0  -2  -1  244.78   26.90
   1   2  -1  228.48   35.60
  -1   2   1  233.18   20.10
  -1  -2   1  250.07   31.50
   1  -2  -1  232.38   16.00
  -1   2  -1  224.18   15.20
   1  -2   1  231.98   17.30
  -1  -2  -1  241.68   28.40
  -2   2  -1   41.50   10.00
  -2   2   1   46.20   10.60
  -2  -2   1   44.10   14.60
   2   2   1   39.60   17.50
   2   2  -1   44.70   22.10
  -2  -2  -1   44.20   13.50
   2  -2  -1   43.60   10.60
   2  -2   1   45.50   10.00
  -3  -2  -1   81.59   11.70
  -3   2  -1   80.19   11.90
   3   2  -1   74.89   16.10
   3   2   1   67.59   16.10
   3  -2  -1   82.59   10.90
  -3   2   1   69.89   12.60
   3  -2   1   73.69   12.60
  -3  -2   1   67.09   11.60
  -4  -2   1  113.59   11.30
  -4  -2  -1  128.29   13.00
  -4   2  -1  127.69   12.00
  -4   2   1  121.79   10.10
   4  -2  -1  117.99   11.30
   4   2  -1  112.49   15.80
   4  -2   1  117.59   12.90
   4   2   1  116.59   14.60
   5   2  -1  104.09   15.00
  -5  -2  -1  102.09   10.60
  -5  -2   1  115.89   10.90
   5  -2   1  103.29   13.50
   5   2   1  106.59   15.80
   5  -2  -1  102.79   13.80
  -5   2   1  102.49    9.60
  -5   2  -1  105.29   11.60
  -6  -2  -1   46.00   10.70
   6   2   1   46.30   13.50
   6  -2  -1   44.20   14.20
   6  -2   1   42.20   13.60
  -6   2   1   51.19   11.30
   6   2  -1   50.29   14.50
  -6  -2   1   42.40   10.70
  -6   2  -1   50.89   11.00
  -7  -2   1   39.60   11.30
   7  -2  -1   23.90   15.60
   7   2  -1   40.60   13.60
   7  -2   1   39.20   15.70
  -7  -2  -1   38.20   10.70
  -7   2   1   33.60   11.60
  -7   2  -1   40.70    9.50
   7   2   1   40.80   14.10
   8  -2  -1   20.30   17.50
  -8   2   1   11.50   12.60
  -8  -2  -1   24.80   12.00
  -8   2  -1   16.00   12.40
   8  -2   1   32.70   17.20
   8   2   1   19.80   14.50
   8   2  -1   15.70   13.50
   9   2   1   25.20   15.00
  -9  -2   1   51.79   13.90
  -9  -2  -1   42.80   13.30
 -10  -2  -1   59.99   16.10
 -10  -2   1   42.60   16.00
 -10   2  -1   68.19   16.10
  10   2  -1   52.59   15.60
  10  -2  -1   68.39   16.20
 -10   2   1   64.19   16.60
  -1   3  -1  317.67   17.10
  -1  -3   1  317.57   30.20
   1  -3   1  326.87   15.40
  -1   3   1  319.17    9.60
   1  -3  -1  335.67   16.50
  -1   3  -1  316.97   10.60
  -1   3   1  330.07   19.10
   1   3  -1  309.87   33.30
   2   3   1   19.50   18.20
   2  -3  -1   23.70    9.50
  -2   3   1   21.30   13.40
  -2  -3  -1   24.60   16.00
  -2  -3   1   23.30   18.60
   2   3  -1   20.70   21.10
  -2   3  -1   25.80   12.30
   2  -3   1   25.20   10.90
   3   3   1  580.14   20.00
  -3   3  -1  657.83   13.30
  -3  -3   1  626.14   16.30
  -3  -3  -1  640.84   17.30
  -3   3   1  647.44   15.70
   3  -3  -1  638.04   13.80
   3  -3   1  637.94   14.70
   3   3  -1  617.24   22.60
   4   3  -1  297.47   18.60
  -4   3  -1  322.27   10.90
   4   3   1  274.07   14.00
  -4  -3  -1  297.27   13.00
  -4  -3   1  302.17   12.50
  -4   3   1  309.47   11.40
   4  -3   1  308.07   13.20
   4  -3  -1  291.57   13.80
   5  -3  -1  139.99   11.40
   5   3  -1  152.78   16.50
  -5  -3  -1  157.68   12.70
   5   3   1  152.78   16.40
  -5  -3   1  151.08   12.40
  -5   3   1  159.18   10.20
  -5   3  -1  165.48   12.40
   5  -3   1  153.18   13.30
  -6  -3   1   51.79   10.40
  -6   3  -1   52.99   10.10
   6  -3   1   54.49   11.50
   6   3  -1   53.89   14.90
  -6  -3  -1   51.49   10.20
  -6   3   1   55.59   11.30
   6  -3  -1   52.29   14.20
   6   3   1   62.99   15.00
  -7  -3   1  161.28   11.70
  -7   3   1  167.48   10.40
   7   3  -1  165.08   13.40
   7  -3   1  150.68   15.30
  -7   3  -1  186.48   12.20
   7  -3  -1  145.89   12.80
   7   3   1  162.98   13.60
  -7  -3  -1  166.38   11.40
  -8  -3  -1  166.88   12.60
  -8   3   1  194.28   13.80
   8  -3  -1  178.18   15.60
   8  -3   1  162.68   15.10
   8   3   1  166.58   16.00
   8   3  -1  163.08   14.00
  -9   3  -1   47.40   11.90
   9   3  -1   49.00   14.30
   9   3   1   40.70   14.30
  -9  -3  -1   48.80   13.90
  -9  -3   1   41.20   14.00
 -10  -3   1    8.60   15.60
  10  -3  -1    8.60   16.40
 -10  -3  -1   18.10   15.80
 -10   3   1   -1.80   16.10
 -10   3  -1   15.20   16.10
  10   3  -1   13.80   15.10
   0  -4  -1 1293.67   27.50
   0  -4  -1 1265.97   16.20
   0   4  -1 1319.77   16.50
   0   4   1 1313.57   17.90
   0   4   1 1220.38   34.10
   0   4  -1 1219.48   27.60
   0  -4   1 1256.77   17.40
  -1  -4  -1  277.17   11.90
   1  -4  -1  287.57    9.40
  -1   4  -1  284.37   15.00
  -1   4   1  297.67    9.40
  -1   4  -1  285.87    8.30
   1   4  -1  280.67   28.50
  -1   4   1  287.87   19.10
  -1  -4   1  266.07   13.60
   1  -4  -1  298.67   15.80
   1  -4   1  279.27   12.60
   1  -4   1  288.07    9.30
  -2   4   1   80.79    6.60
  -2  -4  -1   86.29   22.60
  -2   4   1   83.39   14.40
   2  -4   1   88.39   11.70
   2   4  -1   85.69   27.30
   2  -4  -1   89.99   12.90
  -2  -4   1   89.69   20.60
  -2   4  -1   85.89   13.60
  -2   4  -1   80.39    6.30
   3  -4   1   42.70    9.40
  -3  -4  -1   41.20   13.70
  -3   4   1   38.80   12.80
   3  -4  -1   43.00   12.20
  -3   4  -1   52.19   12.70
  -3  -4   1   40.40   15.30
   3   4  -1   35.30   17.20
   3   4   1   36.50   14.80
   4  -4   1  252.27   11.80
  -4  -4   1  249.78   13.60
  -4  -4  -1  248.98   13.30
   4   4  -1  265.87   17.60
  -4   4  -1  250.17   12.30
   4   4   1  241.18   16.10
   4  -4  -1  291.47   10.90
  -4   4   1  280.97   10.90
  -5  -4   1  363.86   13.00
  -5  -4  -1  366.26   12.60
   5   4  -1  386.06   17.70
  -5   4  -1  372.56   13.10
   5   4   1  366.16   16.90
   5  -4  -1  352.76   14.00
  -5   4   1  383.46   13.70
   5  -4   1  353.96   13.50
   6   4  -1    4.80   12.30
  -6   4   1    0.10    9.90
  -6  -4  -1    6.90   12.00
  -6   4  -1   -3.40    9.70
  -6  -4   1    6.00   10.10
   6  -4  -1   -0.30   13.50
   6   4   1    5.10   11.90
   6  -4   1   11.20   13.00
  -7  -4  -1  124.79   11.30
  -7   4  -1  111.89   10.60
   7  -4  -1  112.69   12.80
  -7  -4   1  113.39   11.70
   7   4  -1  105.09   12.50
  -7   4   1  130.09   13.10
   7   4   1  105.79   12.70
   7  -4   1  111.89   15.00
   8  -4  -1   53.29   16.30
   8  -4   1   47.80   16.60
  -8   4   1   58.39   10.90
  -8  -4  -1   55.99   12.40
  -8  -4   1   65.89   14.30
  -8   4  -1   56.79   11.20
   8   4   1   61.49   13.20
   8   4  -1   46.00   12.90
   9   4   1    3.80   14.00
  -9  -4   1    1.90   14.20
   9   4  -1    0.10   13.90
  -9  -4  -1   -0.40   14.00
 -10  -4  -1    0.10   18.80
 -10   4  -1    7.60   14.00
 -10  -4   1    3.80   15.80
 -10   4   1   26.00   17.30
  10   4  -1   14.00   15.10
   1  -5   1   63.19   11.00
  -1  -5  -1   60.09    9.30
  -1   5   1   63.89    8.20
  -1  -5   1   58.69   11.50
   1  -5  -1   66.79   11.40
   1  -5   1   60.69    8.60
   1   5  -1   64.59   22.60
  -1   5  -1   64.19   13.80
  -1   5  -1   60.89    6.70
   1  -5  -1   63.39    8.40
   1   5  -1   62.49   20.70
  -1   5   1   61.69   17.60
   2  -5  -1  201.88   11.60
  -2   5   1  193.88   12.10
  -2   5  -1  181.48    8.20
   2  -5   1  179.68   11.20
  -2   5   1  199.68    8.20
  -2   5  -1  177.78   11.30
   2   5  -1  184.08   31.50
  -2  -5   1  178.98   23.60
  -3   5   1  715.33   15.80
   3   5   1  723.93   26.70
  -3   5  -1  744.23   15.30
   3  -5  -1  717.63   14.00
  -3   5  -1  701.63    9.10
  -3  -5  -1  737.33   24.70
   3  -5   1  702.83   12.20
   3   5  -1  754.62   25.70
  -3  -5   1  746.13   22.30
  -3   5   1  706.93   10.00
   4  -5  -1  200.58   11.80
  -4   5   1  203.08   10.90
  -4   5  -1  198.88   12.60
  -4  -5   1  196.28   14.60
   4  -5   1  197.58   11.70
  -4  -5  -1  199.38   15.40
   4   5   1  196.88   17.70
   4   5  -1  198.38   17.20
  -5  -5   1   14.60   12.40
   5  -5  -1   24.40    9.70
   5   5  -1   18.00   14.20
  -5   5   1   11.30   12.10
   5   5   1   19.00   13.60
   5  -5   1   10.60   11.90
  -5   5  -1   14.30    9.60
  -5  -5  -1   20.70   12.00
  -6  -5  -1  265.57   13.80
  -6   5  -1  263.97   11.20
   6   5   1  251.17   15.10
   6   5  -1  256.47   13.90
   6  -5   1  266.67   13.80
  -6  -5   1  271.77   15.20
  -6   5   1  271.17   13.20
   6  -5  -1  272.17   13.60
   7   5  -1  352.46   15.20
   7  -5   1  334.47   12.90
  -7   5   1  361.56   11.50
  -7  -5   1  361.76   13.50
  -7   5  -1  367.86   11.90
   7   5   1  345.07   15.80
  -7  -5  -1  360.86   15.60
   7  -5  -1  339.37   12.70
  -8  -5   1   91.19   15.10
   8   5   1   82.99   12.70
   8   5  -1   86.49   15.00
  -8  -5  -1   82.69   14.70
   8  -5   1   87.39   12.80
  -8   5  -1   84.39   11.10
  -9  -5   1   11.10   16.30
  -9  -5  -1    7.00   16.40
  -9   5  -1   25.30   12.50
   9  -5   1   -1.60   15.50
   9  -5  -1   17.30   15.90
 -10  -5   1   33.40   18.80
 -10   5  -1   19.70   18.00
 -10  -5  -1   12.90   18.90
 -10   5   1   38.60   17.80
   0  -6   1  155.88   10.50
   0  -6  -1  153.48   10.20
   0  -6  -1  154.98   14.50
   0   6  -1  147.49   19.00
   0   6  -1  156.88   10.00
   0   6   1  166.78   10.50
   0   6   1  148.79   22.30
  -1   6   1  527.25    9.50
  -1   6  -1  492.95   16.00
  -1   6  -1  527.75    9.50
  -1  -6  -1  481.55   13.20
   1   6  -1  490.65   26.80
   1  -6  -1  507.15   10.60
   1  -6   1  509.95    9.50
   1  -6  -1  495.85   14.30
   1   6  -1  505.85   24.20
  -1  -6   1  494.25   11.80
  -1   6   1  470.55   17.50
   1  -6   1  501.95   12.80
  -2  -6  -1 1572.14   18.70
  -2  -6   1 1553.64   16.90
   2  -6   1 1514.25   16.70
   2  -6  -1 1534.85   17.00
  -2   6  -1 1497.15   13.20
  -2   6   1 1486.95   20.60
  -2   6  -1 1496.15   18.30
  -2   6   1 1494.05   12.10
  -3   6   1  790.52   16.50
   3   6  -1  808.02   30.40
  -3   6  -1  748.33    9.70
   3  -6  -1  775.92   12.30
   3  -6   1  780.62   12.00
  -3   6   1  764.82    8.90
  -3   6  -1  767.82   15.60
  -3  -6   1  840.72   28.90
   4  -6   1    6.00    8.60
   4  -6  -1    7.10   11.10
   4   6  -1    1.70   15.80
  -4   6  -1    3.40   12.30
  -4   6   1    3.80    5.80
  -4   6   1    5.00   12.70
  -4  -6   1    1.80   16.00
   4   6   1    8.10   16.00
  -4  -6  -1    3.00   17.10
  -4   6  -1    4.60    7.10
   5   6   1   32.90   14.50
  -5  -6   1   33.30   13.90
   5   6  -1   29.40   13.50
  -5  -6  -1   27.00   13.80
  -5   6   1   25.20    9.90
   5  -6  -1   25.10   11.10
   5  -6   1   27.10    8.90
  -5   6  -1   37.60   11.60
   6   6   1   37.30   13.10
   6  -6  -1   39.20    9.70
  -6  -6   1   32.80   12.90
   6  -6   1   33.10    9.80
  -6  -6  -1   39.70   14.30
  -6   6  -1   30.90    9.80
   6   6  -1   36.10   13.20
  -6   6   1   38.60   10.30
  -7   6   1   60.79   11.10
  -7  -6   1   69.49   14.00
  -7   6  -1   56.29   10.80
   7   6  -1   64.59   13.70
  -7  -6  -1   68.69   14.10
   7   6   1   66.69   13.20
   7  -6  -1   62.39   11.30
   7  -6   1   52.59   11.00
  -8  -6   1   14.20   14.20
  -8   6  -1   13.60   11.70
   8   6  -1   17.90   14.50
  -8  -6  -1   24.00   15.50
   8  -6   1   22.30   12.80
  -9   6   1  186.18   14.10
  -9   6  -1  185.38   13.70
  -9  -6   1  200.68   17.50
  -9  -6  -1  214.58   17.70
   9   6  -1  176.18   16.80
   9  -6   1  155.78   15.80
   1  -7   1  348.47   11.80
  -1   7  -1  356.36    8.80
   1   7  -1  359.46   27.20
   1   7  -1  357.26   21.50
   1  -7   1  360.56   10.00
  -1   7   1  357.76    8.70
  -1  -7  -1  344.07   12.50
  -1   7  -1  357.76   17.20
  -1   7   1  322.37   19.20
   1  -7  -1  353.46    8.50
  -1  -7   1  339.47   10.80
   1  -7  -1  354.76   12.20
  -2   7   1  318.57   15.50
  -2  -7  -1  341.47   11.00
   2  -7   1  340.87    9.90
  -2   7  -1  343.47    8.00
  -2  -7   1  343.27   11.20
   2  -7  -1  332.67   11.60
  -2   7  -1  333.07   12.80
  -2   7   1  349.17    9.10
   3  -7   1   13.10    9.50
  -3   7   1   19.40    7.00
  -3  -7   1   12.80   11.10
  -3   7   1   22.40   12.50
  -3  -7  -1   16.00    9.40
  -3   7  -1   16.30    7.20
  -3   7  -1   13.40   12.20
   3  -7  -1   13.50    7.80
   4   7  -1  133.89   19.20
  -4  -7  -1  143.19   28.80
  -4   7   1  135.19    7.80
  -4   7  -1  128.49    8.00
  -4  -7   1  143.79   18.30
   4  -7   1  142.69    9.10
  -4   7   1  137.09   11.20
   4  -7  -1  140.09   11.10
  -4   7  -1  138.09   13.20
   5  -7  -1  548.25   13.20
   5   7  -1  537.55   19.40
  -5   7  -1  514.65    9.10
   5  -7   1  521.35   13.10
  -5   7   1  513.75    9.20
  -5   7  -1  525.65   12.70
  -5   7   1  518.15   14.60
  -5  -7   1  546.55   19.10
  -5  -7  -1  543.05   21.10
  -6   7  -1  322.87   12.30
  -6   7  -1  293.87    8.60
   6  -7  -1  321.17   13.10
  -6   7   1  345.87   14.60
  -6  -7   1  327.37   16.70
   6   7  -1  316.17   16.80
  -6  -7  -1  337.77   18.10
  -6   7   1  311.77    9.10
   6  -7   1  333.27   13.50
   7   7  -1   39.00   13.60
  -7  -7  -1   40.60   16.20
  -7   7  -1   51.79   13.80
   7  -7   1   34.00   13.70
  -7   7   1   36.30   14.20
   7  -7  -1   36.30   13.50
  -7  -7   1   40.90   15.30
   8   7  -1   69.89   15.70
  -8  -7   1   77.99   14.60
   8  -7   1   58.29   12.60
  -8  -7  -1   66.69   17.00
  -9  -7   1   70.99   18.90
  -9   7  -1   30.80   11.00
  -9   7   1   38.00   10.80
  -9  -7  -1   63.69   19.20
   0  -8  -1 1764.22   14.20
   0  -8   1 1776.62   14.30
   0   8   1 1937.61   14.90
   0   8  -1 1828.12   27.80
   0  -8  -1 1841.32   22.70
   0   8   1 1848.12   31.10
   0   8  -1 1915.71   14.70
   1  -8   1  896.61   14.10
   1  -8   1  920.31   11.50
   1  -8  -1  919.41   10.40
   1   8   1  973.70   47.60
   1   8  -1  924.61   26.30
  -1  -8   1  864.71   13.70
   1   8   1  950.40   38.60
   1   8  -1  928.11   32.90
  -1   8   1  927.11   11.60
   1  -8  -1  899.11   15.20
  -1   8   1  877.11   19.70
  -1  -8  -1  873.61   13.60
  -1   8  -1  944.11   11.50
  -1   8  -1  893.61   18.40
  -2   8   1   34.50    6.40
   2  -8   1   34.30    9.30
  -2   8  -1   26.90    7.60
  -2   8  -1   31.30   13.40
  -2   8   1   30.60   13.50
   2  -8  -1   29.70    9.30
  -2  -8   1   32.30    8.90
  -2  -8  -1   26.80   10.80
   3  -8   1   48.50    7.90
   3  -8  -1   39.20    8.10
  -3  -8  -1   59.09   11.40
  -3   8   1   46.10   13.40
  -3  -8   1   51.19   11.50
  -3   8   1   51.89    7.70
  -3   8  -1   55.89    7.60
  -3   8  -1   49.00   11.00
  -4   8  -1  711.43    9.50
  -4   8  -1  727.83   13.80
  -4   8   1  700.73    9.50
   4  -8   1  694.13   11.20
  -4   8   1  692.73   15.60
   4  -8  -1  710.93   12.70
  -5   8   1  210.98   14.30
   5  -8   1  206.08   11.70
   5  -8  -1  189.88   11.70
  -5   8  -1  198.98   14.10
  -5   8   1  198.48    8.40
  -5  -8   1  211.48   21.60
  -5   8  -1  195.18    8.20
   6  -8  -1   64.79   12.20
  -6   8  -1   64.89    6.60
  -6   8   1   61.79    6.70
  -6  -8  -1   64.49   19.10
  -6  -8   1   65.29   17.20
   6  -8   1   57.49    9.90
  -6   8   1   70.89   11.60
  -6   8  -1   67.99   13.80
  -7  -8   1   87.19   18.40
  -7   8   1   91.09   12.30
  -7   8   1   93.09    7.60
   7  -8  -1   75.49   11.10
  -7   8  -1   85.49    9.00
  -7  -8  -1   93.49   18.80
  -7   8  -1   93.69   12.10
  -8  -8   1    9.80   17.90
  -8   8  -1   -6.40   12.50
  -8   8   1   11.10   12.60
  -8  -8  -1    7.10   19.50
   8  -8   1   -3.50   12.20
  -8   8   1    4.90    9.60
  -8   8  -1    6.20    9.40
  -9  -8  -1    9.50   20.20
  -9   8   1    5.80    8.90
  -9  -8   1    8.20   20.40
  -9   8  -1   -1.80    8.90
   9  -8  -1  -11.10   14.70
   1   9  -1   14.40   22.80
  -1   9   1   11.20   16.50
  -1   9   1    9.40    8.60
  -1   9  -1   17.80   15.40
  -1   9  -1   -0.10    8.60
  -1  -9  -1   12.50   10.40
  -1  -9   1    7.80   10.40
   1  -9  -1   15.50    8.20
   1   9  -1   10.20   18.10
   1  -9   1    9.30    8.40
   1  -9  -1   17.20   10.30
  -2   9   1    0.80   16.30
  -2  -9   1    1.80    9.00
  -2   9  -1   -0.20    7.90
  -2  -9  -1    4.00   11.00
   2  -9   1    6.80    9.10
   2  -9  -1    1.80    9.10
  -2   9   1    4.30    6.60
  -2   9  -1   10.50   12.80
  -3   9   1  302.97    7.40
  -3  -9   1  320.87   10.40
   3  -9  -1  286.77    9.40
  -3  -9  -1  315.47   10.40
   3  -9   1  297.17   10.60
  -3   9  -1  304.37    7.50
  -3   9  -1  283.07   14.60
  -3   9   1  287.07   14.80
  -4  -9  -1  472.55   11.00
   4  -9  -1  442.26   10.00
  -4  -9   1  479.15   12.50
  -4   9  -1  443.26    8.30
  -4   9   1  459.55   15.10
  -4   9   1  461.05    9.20
  -4   9  -1  451.25   14.90
   4  -9   1  466.45   11.40
  -5   9   1   86.49    6.70
  -5   9   1  104.09   13.80
  -5   9  -1  100.09   13.70
   5  -9  -1   97.49    9.40
   5  -9   1   83.29   10.80
  -5  -9  -1  103.59    8.90
  -5  -9   1   97.29    9.10
  -5   9  -1   90.19    6.60
   6  -9   1  112.99   11.80
   6  -9  -1  107.59   12.10
  -6   9   1   90.89   11.70
  -6   9  -1   95.49    8.40
  -6   9   1   96.19    8.50
  -7   9  -1   70.89   12.50
  -7   9  -1   64.09    7.60
  -7   9   1   67.19    7.50
  -7  -9   1   65.39   28.10
  -8  -9   1  316.37   29.60
  -8   9   1  340.47   15.10
  -8   9   1  230.68   11.40
  -8   9  -1  214.78   11.30
  -9   9   1   -1.10    9.70
  -9   9  -1   41.50   11.80
   9  -9   1   76.99   14.80
   0  10  -1    4.40   14.70
   0 -10   1    6.20    9.70
   0  10   1    7.20    9.60
   0 -10  -1   -1.00    9.70
   0  10   1    7.10   15.80
   0  10  -1   10.00    9.90
   1 -10   1  299.17    8.40
  -1 -10   1  276.17   12.00
  -1 -10  -1  293.87   11.50
  -1  10  -1  313.27    9.90
   1 -10  -1  283.57   12.10
   1  10  -1  299.57   21.70
  -1  10  -1  296.67   17.50
   1 -10  -1  291.07    8.40
  -1  10   1  302.47    9.90
  -1  10   1  287.87   17.40
   1  10  -1  289.17   24.50
   2 -10   1  529.85   12.80
   2 -10  -1  528.05   11.70
  -2 -10   1  543.25   12.70
  -2  10   1  547.35   10.10
  -2  10  -1  542.35   18.30
  -2  10   1  525.65   16.90
  -2  10  -1  560.04    9.90
  -2 -10  -1  539.95   12.80
  -3  10   1  229.08    9.10
  -3 -10  -1  238.88   10.00
  -3  10  -1  217.68    7.30
   3 -10  -1  217.38   10.40
   3 -10   1  221.78   10.30
  -3  10  -1  231.48   15.00
  -3 -10   1  243.28   10.30
  -3  10   1  218.78   15.10
  -4 -10   1   10.40   10.60
  -4  10  -1    9.70   14.10
  -4  10   1    9.40   11.50
  -4  10  -1    9.60    7.70
   4 -10   1   -2.50    8.20
  -4 -10  -1    4.00   10.90
   4 -10  -1    8.70   10.30
  -4  10   1   -3.00    7.80
  -5  10  -1   11.60   11.80
  -5 -10   1   -0.80   10.70
   5 -10   1   10.70   11.00
  -5  10  -1    8.50    8.10
   5 -10  -1   12.00   10.50
  -5 -10  -1    6.90   10.80
  -5  10   1   21.00   14.70
  -5  10   1   12.40    8.20
   6 -10   1   39.90   11.80
  -6  10   1   43.70   12.50
  -6  10  -1   39.80    8.80
  -6  10   1   47.80    8.70
  -6 -10   1   48.20   11.10
  -6  10  -1   38.80   12.30
  -6 -10  -1   33.20   11.10
  -7  10   1    9.60    7.60
  -7 -10   1    1.30    9.30
  -7 -10  -1   -5.80    9.50
   7 -10   1    7.50   10.50
  -7  10  -1    1.10   12.90
  -7  10  -1   -5.10    7.60
  -8  10   1   17.30   10.50
   8 -10   1   33.60   12.70
   8 -10  -1   28.40   12.60
  -8  10  -1   20.90   10.70
   1 -11  -1   16.90    6.90
  -1 -11  -1   20.20    8.40
  -1 -11   1   21.70    8.20
  -1  11  -1   26.70   12.80
  -1  11   1   21.70   14.30
  -1  11  -1   26.40    7.20
   1 -11   1   25.60    7.10
  -1  11   1   20.40    7.00
   1 -11  -1   24.10   10.30
   1  11  -1   18.30   24.00
   1  11  -1   21.90   21.00
  -2  11  -1  253.07    7.90
  -2 -11  -1  262.07   12.20
   2 -11  -1  250.47    9.90
  -2  11   1  246.68   16.40
  -2  11  -1  275.17   16.40
   2 -11   1  267.37   10.30
  -2 -11   1  262.97   10.40
  -2  11   1  255.37    8.10
   3 -11  -1   42.50    9.60
   3 -11   1   43.80    9.50
  -3  11   1   37.00   14.30
  -3  11  -1   44.90    6.90
  -3 -11  -1   40.20    9.20
  -3  11   1   33.90    6.90
  -3 -11   1   47.20    9.10
  -3  11  -1   43.00   13.90
  -4  11  -1   28.80    8.40
  -4  11   1   16.90   13.20
  -4 -11   1   35.20   11.30
   4 -11  -1   22.40   10.80
   4 -11   1   30.10   10.90
  -4  11   1   36.00    8.70
  -4 -11  -1   37.00   11.00
  -4  11  -1   21.20   15.30
   5 -11  -1  128.99    9.30
  -5  11  -1  124.69    9.00
  -5 -11   1  145.09   11.10
  -5 -11  -1  134.89   11.60
  -5  11  -1  143.59   12.40
  -5  11   1  136.59   16.60
   5 -11   1  125.99    8.90
  -5  11   1  123.49    8.80
  -6  11  -1  344.07   17.20
  -6  11  -1  299.57   10.20
  -6 -11   1  357.56   12.30
  -6  11   1  328.67   17.10
  -6  11   1  303.07    8.70
   6 -11  -1  336.57   11.00
  -6 -11  -1  309.67   12.40
  -7  11  -1  111.19    8.50
   7 -11   1  137.69   11.40
  -7 -11   1  146.69   10.20
  -7 -11  -1  135.29   10.40
  -7  11   1  129.49    8.60
  -7  11   1  157.78   14.80
  -8  11   1   12.00    8.70
  -8  11  -1   10.00    8.90
  -8 -11   1    6.50   10.10
  -8 -11  -1    3.40   10.60
   0  12  -1   18.60   15.00
   0  12   1   15.20   16.80
   0  12   1   16.10    8.00
   0  12  -1   18.60    7.90
   0 -12  -1   15.50    8.10
   0 -12   1   17.30    8.00
   1 -12   1  158.28    8.00
   1 -12  -1  159.98    7.90
  -1  12  -1  165.68   15.50
  -1 -12   1  160.78   11.00
  -1  12   1  170.98    9.80
  -1  12   1  162.68   15.40
  -1  12  -1  169.58    9.60
  -1 -12  -1  173.28   11.00
  -2  12  -1  205.98   13.90
  -2 -12   1  210.98   10.00
  -2  12   1  198.18   16.00
   2 -12  -1  197.28   10.20
  -2  12  -1  196.28    7.90
  -2 -12  -1  206.28   10.10
  -2  12   1  196.78    8.00
  -3  12  -1   82.89    8.90
  -3  12   1   69.79   14.40
  -3  12   1   77.09    8.90
  -3  12  -1   85.09   15.10
   3 -12   1   73.89   10.00
   3 -12  -1   78.39   10.30
  -3 -12   1   89.19   11.50
  -3 -12  -1   87.39   11.50
   4 -12   1    5.50   10.30
  -4 -12   1    1.30   11.10
  -4  12   1    7.30   12.60
  -4  12   1    8.20    8.60
  -4  12  -1    1.70   15.30
  -4 -12  -1   -4.20   11.20
  -4  12  -1   -2.70    8.60
   4 -12  -1    4.80   10.30
   5 -12   1   14.30   11.30
  -5 -12   1   20.80   10.60
  -5  12   1   13.00   15.80
  -5  12   1   21.30    9.10
  -5 -12  -1    3.30   11.20
  -5  12  -1   12.60    9.10
  -6 -12   1   12.50   11.20
  -6  12   1    6.50    9.50
  -6 -12  -1    2.70   11.60
  -6  12   1   12.70   14.20
   6 -12   1   18.70   10.10
  -6  12  -1    5.80    9.50
  -7  12  -1   -6.10   10.50
  -7 -12   1    0.30    9.90
  -7  12  -1    1.20   15.20
   7 -12   1   -9.10   11.40
  -7  12   1    8.00    8.70
  -7 -12  -1   16.50   12.10
  -8  12  -1    4.30   16.50
  -8 -12   1    7.50   10.90
  -8 -12  -1   22.50   13.20
   8 -12  -1   21.20   15.80
  -8  12  -1    6.70   11.70
  -8  12   1    1.50   16.70
  -8  12   1    5.80    9.80
  -1  13  -1   25.00   14.10
  -1  13   1   17.50    9.50
  -1  13  -1   17.50    7.90
   1 -13  -1   15.60    7.60
   1 -13   1   15.70    9.50
  -1 -13   1    9.70    8.80
  -1  13   1   15.50   14.80
  -1 -13  -1   15.70    8.70
  -2  13  -1    4.80   13.80
  -2 -13   1    5.60    9.20
  -2 -13  -1   10.00    9.40
  -2  13   1    9.10    7.80
  -2  13  -1   15.50    7.50
  -2  13   1   15.80   15.70
  -3  13  -1  104.59   14.40
  -3 -13  -1  103.29    9.70
   3 -13  -1   91.39   10.30
  -3 -13   1   93.09    9.80
  -3  13  -1  106.39    7.80
  -3  13   1   89.69    7.70
  -3  13   1   97.39   14.40
  -4  13   1  156.88    8.00
  -4 -13  -1  164.18   10.20
  -4  13  -1  150.28   16.00
  -4  13   1  145.79   16.20
  -4 -13   1  156.28    9.80
  -4  13  -1  142.39    8.20
  -5  13  -1   16.60    7.90
  -5  13   1   16.40    9.70
  -5 -13   1   10.70   11.60
  -5 -13  -1   20.30    9.40
  -5  13  -1   20.60   13.40
  -6  13  -1    5.00   10.40
  -6 -13   1   -7.70   11.90
  -6  13  -1    7.60   14.20
   6 -13  -1   -2.50   10.40
  -6 -13  -1   -3.10   11.90
  -6  13   1   -1.80   10.30
  -7 -13  -1   13.80   12.60
  -7 -13   1   17.20   12.20
   7 -13   1   16.00   11.70
   7 -13  -1    7.60   11.70
  -7  13  -1    7.50   11.30
  -7  13   1   12.70   11.20
   0 -14  -1  304.57   11.20
   0 -14   1  302.77   11.20
   0  14   1  329.57   22.50
   0  14  -1  326.67   20.70
   0  14  -1  340.97   17.50
  -1  14  -1   46.10   10.20
  -1  14   1   58.89   10.30
   1 -14  -1   39.30    9.90
  -1  14   1   55.29   16.30
  -1 -14   1   42.60   11.20
   1 -14   1   46.50   10.00
  -1  14  -1   53.09   16.50
  -1 -14  -1   43.40   11.30
  -2  14   1   56.09    8.20
  -2  14  -1   68.09   14.00
  -2 -14  -1   54.49    9.60
  -2 -14   1   65.29    9.60
  -2  14   1   65.49   15.70
  -2  14  -1   62.49    8.00
  -3 -14  -1    7.00    9.70
  -3  14   1   -0.40    9.70
  -3  14  -1    7.30   14.30
  -3 -14   1    5.70   11.70
   3 -14  -1    7.10   10.50
  -3  14  -1    2.70    9.60
  -3  14   1   20.00   14.60
  -4 -14   1  147.59   12.40
  -4  14   1  141.59   16.10
  -4  14   1  132.19   10.60
  -4 -14  -1  162.68   12.60
  -4  14  -1  132.69   10.30
  -5  14   1   44.70   17.40
  -5 -14  -1   39.70   12.10
  -5  14   1   40.00    8.50
  -5  14  -1   41.60   10.20
   5 -14  -1   42.10   12.10
  -5 -14   1   45.20    9.90
   6 -14  -1   33.80   13.40
  -6 -14   1   22.90   10.10
  -6  14   1   31.70    9.00
  -6 -14  -1   37.60   10.20
  -6  14  -1   31.10    8.90
   7 -14  -1    7.00   14.80
  -7  14  -1    6.80   10.00
  -7 -14  -1   -4.30   10.80
  -7  14   1    6.30   10.10
  -7 -14   1    7.50   10.80
  -1 -15   1   35.70    9.00
  -1  15   1   29.30    8.50
  -1 -15  -1   24.50   11.40
  -1  15  -1   29.10   17.00
   1 -15   1   22.90    8.60
  -1  15   1   31.80   16.80
   1 -15  -1   25.00    8.50
  -1  15  -1   39.70    8.80
  -2  15   1   -3.40   15.60
  -2  15   1    8.70    8.50
  -2 -15  -1    7.90   12.00
  -2 -15   1    5.30    9.60
  -2  15  -1   11.50   15.50
  -2  15  -1    0.90   10.20
  -3  15   1   38.50   10.50
  -3 -15   1   27.00   12.40
  -3 -15  -1   23.10   12.40
  -3  15  -1   29.80   10.40
  -3  15   1   32.30   15.20
  -4  15  -1   11.00    8.50
  -4  15   1    6.90   15.90
  -4 -15   1    5.90   10.10
  -4  15   1   12.30    8.70
  -4 -15  -1   11.10   10.20
  -5 -15   1   19.10   12.50
   5 -15  -1   28.40   12.70
  -5  15  -1   20.70    9.20
  -5 -15  -1   13.80   10.40
  -5  15   1   22.50   11.20
  -6 -15  -1   12.20   13.20
  -6 -15   1   14.50   12.90
   6 -15  -1   28.40   14.00
  -6  15  -1   13.60   12.10
  -6  15   1   20.70   11.80
   0 -16   1   98.19   11.90
   0  16  -1   99.49   27.20
   0 -16  -1  100.39   12.00
   0  16  -1   99.09   28.60
  -1  16   1    1.10   19.00
  -1  16   1    0.00   11.30
  -1 -16  -1   10.20    9.70
  -1 -16   1    0.30   11.80
  -1  16  -1    0.40   17.10
  -1  16  -1   10.10    9.20
  -2  16   1   53.79   11.20
  -2 -16  -1   43.60   12.30
  -2 -16   1   51.89   12.40
  -2  16  -1   20.30   11.20
  -3  16  -1    9.10   15.20
  -3  16  -1    0.50   11.00
  -3 -16  -1   18.00   12.40
  -3 -16   1    7.90   12.40
  -3  16   1   13.50   11.10
  -4 -16  -1   31.00   10.80
  -4  16  -1   13.30    9.50
  -4  16   1   21.50    9.50
  -4  16   1   20.70   16.80
  -4 -16   1    7.70   10.60
  -5  16  -1   21.50   12.10
  -5  16   1   25.20   11.90
  -5 -16   1   26.20   12.40
  -5 -16  -1   19.80   13.40
  -1 -17  -1   28.40   12.80
  -1  17  -1   24.50   18.00
  -1  17  -1   26.70   20.10
  -1 -17   1   20.70   12.70
  -1  17   1   30.20   20.80
  -2 -17   1    6.90   10.30
  -2  17  -1    0.90   19.00
  -2  17   1    3.80    9.90
  -2 -17  -1    6.50   10.40
  -2  17  -1    8.70    9.70
  -2  17   1   -5.30   17.50
  -3 -17   1   11.70   13.20
  -3 -17  -1    8.00   13.50
  -3  17   1   14.40   18.30
  -3  17  -1    0.20   12.10
  -3  17  -1   13.40   16.00
  -3  17   1   17.80   12.30
  -4 -17   1   24.70   13.50
  -4  17  -1   15.50   10.20
  -4  17   1   21.20   12.60
  -4  17   1   23.80   20.00
  -4  17  -1   15.20   17.30
  -4 -17  -1   14.90   11.30
   0 -18   1    0.70   13.30
   0 -18  -1   14.50   13.30
  -1 -18  -1   23.10   11.10
  -1  18   1   21.70   29.00
  -1  18  -1   22.20   22.50
  -1 -18   1   21.90   11.20
  -1  18   1   22.30   26.50
  -1  18  -1   21.00   25.20
  -2 -18  -1   46.40   14.00
  -2 -18   1   54.69   11.10
  -2  18  -1   69.29   18.30
  -2  18  -1   45.50   13.60
  -2  18   1   29.90   21.70
  -2  18   1   45.20   11.10
  -3  18  -1   54.09   19.10
  -3  18   1   57.39   19.70
  -3 -18  -1   37.00   11.50
  -3  18   1   42.40   13.60
  -3  18  -1   44.00   11.10
  -3 -18   1   45.70   13.90
  -1 -19   1   15.70   13.90
  -1 -19  -1   26.20   12.00
   1   0  -2 1291.77   32.10
   1   0   2 1296.67   28.40
  -1   0  -2 1354.96   28.00
  -1   0   2 1358.46   33.80
  -2   0   2 1559.14   22.30
   2   0  -2 1569.94   26.40
   2   0   2 1532.15   22.10
  -2   0  -2 1658.13   22.60
  -3   0  -2  288.37   12.90
   3   0   2  279.47   14.60
  -3   0   2  265.87   11.50
   3   0  -2  261.97   16.70
  -4   0  -2   20.10   10.70
  -4   0   2   20.70    9.20
   4   0   2   15.00   12.70
   4   0  -2   29.70   14.90
   5   0  -2  449.66   16.50
  -5   0   2  472.55   12.30
   5   0   2  424.96   12.70
  -5   0  -2  488.55   12.30
   6   0   2   92.69   14.00
   6   0  -2   96.79   15.30
  -6   0   2   75.79    9.10
  -6   0  -2   82.29   10.70
  -7   0   2  368.36   13.50
  -7   0  -2  394.96   13.10
   7   0   2  351.56   13.90
   7   0  -2  376.86   18.50
   8   0   2   52.69   16.00
  -8   0  -2   63.49   12.50
  -8   0   2   49.30   10.30
  -9   0  -2   23.50   13.40
 -10   0   2    5.10   15.90
 -10   0  -2    8.00   15.50
  -1  -1   2  181.98   23.40
   1   1  -2  173.48   27.10
   1  -1   2  168.88   15.80
  -1   1  -2  176.58   18.40
  -1   1   2  171.98   19.30
  -1  -1  -2  181.68   18.60
   1  -1  -2  171.68   22.80
  -2   1  -2  783.12   16.70
   2  -1   2  751.02   15.60
  -2  -1   2  770.12   20.70
   2   1   2  727.43   20.60
   2   1  -2  730.03   24.80
  -2  -1  -2  800.02   19.50
  -2   1   2  845.42   18.90
   2  -1  -2  748.53   17.40
  -3  -1  -2    0.60   10.80
   3  -1  -2    4.40   13.80
   3   1  -2    3.30   16.00
  -3  -1   2    1.10   11.60
   3   1   2    5.30   12.40
  -3   1  -2    0.00   11.00
   3  -1   2   -1.30   12.00
  -3   1   2    3.40   12.10
  -4  -1  -2 2779.62   21.50
   4   1   2 2426.86   23.90
  -4  -1   2 2609.84   21.40
   4  -1   2 2574.34   22.60
  -4   1  -2 2801.52   21.20
  -4   1   2 2675.93   21.40
   4   1  -2 2599.94   27.10
   4  -1  -2 2609.14   24.40
  -5   1  -2  102.69   11.00
  -5   1   2  100.19   11.40
   5  -1   2  100.09   12.50
   5  -1  -2   95.19   12.80
   5   1   2   83.39   12.90
  -5  -1   2   96.79   11.10
  -5  -1  -2  102.89   10.40
   5   1  -2  100.59   15.30
  -6  -1   2 1263.57   15.60
   6   1   2 1166.18   19.10
   6   1  -2 1277.07   21.20
  -6   1   2 1283.97   14.10
   6  -1  -2 1232.68   19.80
  -6   1  -2 1319.07   15.40
  -6  -1  -2 1292.57   15.60
   6  -1   2 1127.99   16.40
   7  -1   2    9.40   15.10
  -7  -1   2    6.00   10.00
  -7   1   2    3.80    9.80
   7  -1  -2   17.80   15.80
  -7  -1  -2    6.60   11.30
   7   1   2    5.10   15.10
   7   1  -2    7.00   15.60
  -7   1  -2    1.70   11.00
  -8   1   2  836.72   15.00
   8   1   2  743.93   17.50
  -8  -1  -2  806.42   14.60
   8   1  -2  779.02   17.70
   8  -1   2  770.92   19.40
  -8   1  -2  795.22   13.10
  -9   1   2   33.20   10.90
  -9  -1  -2   20.60   13.40
 -10  -1   2  200.08   17.00
 -10   1  -2  202.18   16.30
 -10  -1  -2  189.08   17.20
  10  -1  -2  166.18   15.40
 -10   1   2  191.38   17.10
  10  -1   2  188.88   15.70
   0   2   2  837.32   20.20
   0  -2  -2  777.32   33.80
   0   2   2  832.32   38.70
   0  -2   2  805.32   21.30
   0  -2  -2  820.82   19.80
   0   2  -2  843.32   19.90
  -1   2  -2  210.88   16.10
  -1   2   2  214.98   20.10
   1  -2  -2  215.48   18.10
   1   2  -2  207.38   27.00
   1  -2   2  218.88   16.00
  -1  -2   2  215.48   25.70
  -1  -2  -2  215.58   21.70
  -2   2  -2 1131.69   16.60
  -2  -2  -2 1197.28   23.50
   2   2   2 1091.49   24.90
   2  -2   2 1110.69   16.50
   2  -2  -2 1119.39   17.90
   2   2  -2 1128.89   31.00
  -2   2   2 1156.48   18.30
  -2  -2   2 1168.18   26.30
   3  -2   2 1021.60   16.80
  -3  -2   2  983.50   17.70
   3   2  -2 1013.80   23.30
  -3   2   2 1047.70   17.30
  -3  -2  -2 1065.49   18.70
  -3   2  -2 1037.10   16.30
   3  -2  -2 1004.50   16.60
   3   2   2  952.10   19.70
   4  -2  -2  137.59   13.70
  -4   2   2  136.09   10.20
   4  -2   2  132.59   13.40
  -4   2  -2  137.79    9.70
   4   2   2  127.79   14.10
  -4  -2  -2  143.29   11.50
   4   2  -2  144.49   17.20
  -4  -2   2  134.99   11.70
   5  -2  -2  195.58   12.20
   5   2   2  185.68   14.40
   5  -2   2  197.18   13.80
   5   2  -2  208.88   16.40
  -5   2   2  209.88   10.40
  -5  -2   2  205.98   11.70
  -5   2  -2  216.38   12.10
  -5  -2  -2  213.28   11.30
   6  -2   2   42.50   11.10
  -6   2  -2   30.40   11.10
   6  -2  -2   31.90   14.40
  -6  -2   2   29.00   10.60
   6   2  -2   32.00   14.20
  -6   2   2   31.50   11.40
   6   2   2   32.30   13.90
  -6  -2  -2   34.20   10.30
  -7   2   2  118.49   11.90
  -7   2  -2  133.39   11.90
   7  -2   2  101.49   15.80
  -7  -2   2  113.19   11.10
   7   2   2  110.99   13.80
   7  -2  -2  105.89   16.00
   7   2  -2  116.69   13.60
  -7  -2  -2  117.29   10.80
  -8   2  -2   14.20   10.40
   8   2  -2    8.70   13.70
   8  -2   2    5.10   16.90
   8  -2  -2    9.00   14.70
  -8   2   2   13.40   10.10
   8   2   2   10.80   14.20
  -9  -2   2  179.88   14.40
  -9  -2  -2  183.68   13.90
   9   2   2  179.08   15.40
  10   2  -2   40.20   15.70
 -10  -2  -2   51.69   15.90
 -10   2   2   53.79   16.50
  10  -2  -2   51.99   15.60
 -10  -2   2   50.19   15.90
 -10   2  -2   68.09   16.20
  -1   3   2  381.16   20.30
   1  -3  -2  383.76   15.10
  -1   3  -2  361.16   16.10
  -1  -3  -2  378.06   38.10
   1  -3   2  377.86   15.30
   1   3  -2  370.36   24.20
  -1   3   2  383.36   10.20
  -1   3  -2  372.06    9.80
  -1  -3   2  372.56   25.50
  -2   3  -2  520.45   14.60
  -2  -3   2  526.85   21.20
   2  -3  -2  521.05   13.70
   2   3  -2  548.15   27.80
  -2  -3  -2  543.55   20.70
  -2   3   2  527.65   16.40
   2  -3   2  510.95   12.20
  -3  -3  -2  461.35   15.80
   3  -3   2  461.15   13.80
  -3   3  -2  447.96   12.00
   3  -3  -2  471.25   13.00
  -3  -3   2  442.96   15.20
  -3   3   2  469.75   14.90
   3   3  -2  461.05   20.40
   3   3   2  425.16   18.10
  -4  -3  -2  800.22   15.30
   4   3  -2  802.42   20.20
  -4   3   2  788.82   15.10
   4  -3   2  759.02   13.10
   4  -3  -2  782.72   14.30
  -4   3  -2  779.22   12.70
  -4  -3   2  759.12   14.90
   4   3   2  720.63   18.10
   5  -3   2   28.40   12.70
  -5   3   2   20.80    9.50
   5  -3  -2   27.90   10.60
  -5  -3   2   23.80   10.60
  -5   3  -2   25.30    9.30
   5   3  -2   16.50   14.10
  -5  -3  -2   21.00   10.10
   5   3   2    8.20   13.30
  -6   3   2 2505.85   19.40
  -6  -3  -2 2479.05   19.50
   6  -3   2 2275.37   18.80
  -6   3  -2 2542.05   17.50
   6   3   2 2415.56   22.50
   6  -3  -2 2380.16   21.80
  -6  -3   2 2463.65   19.60
   6   3  -2 2510.85   22.90
   7   3   2  169.68   13.70
   7   3  -2  177.28   12.80
  -7   3  -2  178.28   12.10
  -7  -3  -2  171.98   11.30
  -7   3   2  173.38   12.50
   7  -3  -2  173.38   15.80
  -7  -3   2  165.38   11.60
   7  -3   2  160.98   15.00
   8   3   2  252.67   14.40
   8  -3   2  237.58   18.10
  -8  -3  -2  266.87   13.00
   8  -3  -2  250.47   18.90
   8   3  -2  245.18   14.30
  -8   3   2  242.68   11.90
  -9  -3   2    0.20   13.70
  -9  -3  -2    5.00   13.10
   9   3  -2    7.70   13.70
  -9   3  -2   22.80   11.90
  10  -3  -2  242.08   17.70
  10   3  -2  265.17   16.60
 -10   3  -2  301.47   17.40
 -10  -3   2  263.27   19.70
 -10  -3  -2  279.17   17.50
   0  -4  -2 1958.60   31.70
   0   4   2 2044.00   20.10
   0   4   2 1976.90   42.50
   0  -4   2 1920.81   19.20
   0  -4  -2 1999.30   19.50
   0   4  -2 2018.70   19.60
   0   4  -2 1869.81   28.30
  -1   4  -2    4.90    8.10
   1   4  -2    1.80   19.60
  -1   4   2   -2.00   17.80
  -1   4  -2    4.90   14.10
  -1  -4   2    0.30   10.40
   1  -4   2    5.50    7.80
  -1  -4  -2    2.10    9.50
  -1   4   2   -0.40    6.90
   1  -4  -2   -1.00    7.60
   1  -4  -2    4.40   13.70
   1  -4   2    3.40   10.00
  -2  -4  -2  144.29   20.60
  -2   4   2  144.29    8.00
   2   4  -2  144.09   24.20
   2  -4   2  147.29   11.80
  -2   4  -2  136.99    6.70
  -2   4  -2  148.09   11.10
  -2  -4   2  152.28   19.70
   2  -4  -2  141.79   10.90
  -2   4   2  144.09   15.30
   3  -4   2   11.90   11.60
  -3  -4   2    2.90   13.30
   3   4  -2    2.60   18.00
  -3   4   2   15.50   13.00
   3   4   2    4.50   15.30
  -3   4  -2   12.40   12.70
   3  -4  -2   30.70   12.30
  -3  -4  -2    6.70   13.00
  -4   4  -2  881.01   13.00
  -4  -4  -2  837.82   15.60
   4   4   2  841.52   19.60
   4   4  -2  882.81   20.20
  -4  -4   2  875.41   17.60
  -4   4   2  858.81   13.50
   4  -4   2  838.32   12.70
   4  -4  -2  848.82   13.40
   5  -4   2   50.39   10.40
  -5  -4  -2   45.80   12.30
  -5   4   2   41.10   12.00
   5   4  -2   50.89   15.90
  -5   4  -2   42.60    9.80
   5  -4  -2   36.50   13.10
   5   4   2   39.80   15.00
  -5  -4   2   38.70   11.40
  -6  -4  -2   23.50   12.40
   6  -4   2   17.20   11.10
   6  -4  -2   32.90   13.20
  -6   4   2   19.80   10.00
   6   4  -2   24.40   13.80
  -6   4  -2   10.40    9.90
   6   4   2   15.60   11.50
  -6  -4   2   17.30   10.80
   7  -4  -2   92.79   12.40
  -7   4   2   97.29   11.10
   7   4  -2  100.49   12.60
  -7  -4   2  113.69   11.70
  -7   4  -2  114.29   12.80
   7  -4   2   95.99   12.60
  -7  -4  -2  104.99   12.90
   7   4   2  100.89   14.40
  -8  -4   2    4.70   14.40
  -8  -4  -2    3.30   12.20
   8  -4   2    5.80   13.60
  -8   4   2    8.10   13.40
   8   4   2   -0.90   15.00
  -8   4  -2    4.40   10.70
   8  -4  -2    7.40   13.60
  -9  -4  -2    7.40   15.90
  -9   4   2   13.10   11.90
   9   4  -2   15.90   13.90
   9  -4  -2   16.90   15.50
  -9  -4   2   14.50   16.30
   9  -4   2   19.90   15.00
  10   4  -2   42.30   17.80
 -10  -4   2   51.99   16.40
 -10   4   2   74.69   17.80
 -10  -4  -2   55.99   18.90
 -10   4  -2   49.40   14.20
   1   5  -2   18.00   17.40
   1  -5   2   15.60    6.60
  -1   5   2   15.20    6.70
  -1  -5   2   16.00    9.30
   1  -5  -2   23.40   11.40
  -1   5  -2   17.50    8.10
  -1  -5  -2   15.50    9.50
   1  -5  -2   14.00    8.20
   1  -5   2   22.20   10.70
  -1   5  -2   19.60   12.70
  -1   5   2   22.10   15.70
  -2   5   2   61.69   14.00
  -2  -5   2   54.09   18.40
  -2   5   2   50.69    7.70
  -2   5  -2   48.20   10.10
   2   5  -2   52.29   22.00
   2  -5   2   55.19    8.90
  -2   5  -2   49.50    7.70
   2  -5  -2   54.29    9.10
  -3   5  -2   29.10   12.00
   3  -5  -2   21.20   11.10
  -3  -5  -2   21.00   16.40
  -3   5   2   17.80    7.30
  -3   5   2   21.40   13.00
   3  -5   2   24.10    8.50
   3   5  -2   20.90   16.40
  -3  -5   2   20.10   14.70
  -3   5  -2   27.80    7.30
   4  -5   2 2106.49   18.10
   4   5  -2 2195.28   29.20
  -4  -5  -2 2111.19   25.30
  -4   5  -2 2121.99   17.60
  -4   5   2 2126.59   18.50
   4   5   2 2116.69   27.50
  -4  -5   2 2176.38   25.20
   4  -5  -2 2199.58   19.00
  -5  -5  -2   73.19   12.20
  -5   5   2   67.69   10.20
   5  -5  -2   77.69   12.10
  -5  -5   2   65.19   12.90
   5  -5   2   61.19    9.60
   5   5   2   61.89   13.80
  -5   5  -2   67.79   11.60
   5   5  -2   67.29   14.60
   6   5  -2   97.59   13.40
  -6  -5  -2   98.59   12.80
  -6   5   2   95.19   10.60
  -6  -5   2  105.59   14.40
   6  -5   2   89.39   12.90
   6   5   2   99.19   14.50
   6  -5  -2   87.49   10.80
  -6   5  -2  104.89   10.50
  -7   5  -2   45.60   12.90
   7   5   2   58.69   14.60
   7  -5   2   38.10   11.60
   7  -5  -2   42.80   13.90
  -7   5   2   54.19   13.00
  -7  -5   2   45.10   13.90
   7   5  -2   48.10   14.20
  -8  -5   2  809.82   16.20
   8  -5  -2  695.63   15.30
   8   5  -2  749.73   15.60
   8  -5   2  706.03   17.60
  -8  -5  -2  776.12   17.50
  -8   5   2  800.72   14.10
   9  -5  -2   23.30   15.70
   9   5  -2   24.30   15.70
  -9  -5  -2   26.10   16.30
  -9   5  -2   39.90   12.40
  -9  -5   2   25.20   14.10
 -10   5  -2    9.40   17.60
 -10  -5  -2   17.40   19.00
 -10  -5   2    9.80   18.50
  10   5  -2    8.50   15.00
   0   6   2  164.88   25.50
   0  -6  -2  150.88   13.30
   0   6  -2  161.48   16.00
   0   6   2  159.38    9.00
   0   6  -2  160.58   10.30
   0  -6  -2  160.28   10.00
   0  -6   2  164.88    8.80
   1   6  -2   86.89   16.30
  -1  -6  -2   76.39    9.60
  -1  -6   2   85.29   11.90
   1  -6   2   80.29   10.40
   1  -6  -2   84.89   11.00
  -1   6   2   88.59   15.30
  -1   6   2   91.39    8.80
   1  -6   2   85.29    8.90
  -1   6  -2   85.49    7.30
   1   6  -2   86.29   18.20
   1  -6  -2   91.29    7.40
  -1   6  -2   86.49   12.80
  -2   6   2 1381.06   19.00
  -2  -6   2 1532.45   18.30
   2   6  -2 1528.55   39.20
   2  -6   2 1470.85   16.30
   2  -6  -2 1506.45   17.20
  -2   6  -2 1500.05   19.20
  -2   6  -2 1461.75   12.10
  -2  -6  -2 1547.75   17.20
  -2   6   2 1485.65   12.90
   3  -6   2   64.19   10.30
  -3   6   2   60.59   11.10
  -3   6  -2   65.49   12.60
  -3   6  -2   58.79    7.20
  -3  -6   2   63.09   19.20
   3   6  -2   63.39   20.60
  -3   6   2   54.09    6.30
   3  -6  -2   66.09   10.70
   4  -6   2   91.19    9.10
  -4   6  -2   87.99   10.30
  -4   6   2   99.89   13.40
  -4   6  -2   81.09    6.20
  -4  -6   2   88.29   14.80
   4   6  -2   87.79   16.70
  -4  -6  -2   89.59   17.10
  -4   6   2   94.99    7.60
   4  -6  -2  100.09   11.50
   5  -6   2    9.90   10.60
  -5  -6  -2   12.40   13.50
   5  -6  -2   10.30   11.30
  -5  -6   2    9.40   13.80
   5   6  -2   11.20   13.70
  -5   6  -2    7.30    9.70
  -5   6   2   10.10   12.20
  -6   6   2  119.49   10.90
  -6   6  -2  103.99   12.60
   6  -6   2  114.99   12.20
  -6  -6   2  116.19   13.30
   6  -6  -2  103.69   12.50
  -6  -6  -2  116.89   14.40
   6   6  -2  111.99   13.70
  -7  -6  -2   12.00   14.10
  -7   6   2   12.40   13.20
   7  -6   2    0.60   13.50
  -7  -6   2    9.90   13.50
   7   6  -2   10.70   12.80
   8  -6  -2   74.89   13.00
  -8  -6   2   76.49   15.30
   8  -6   2   69.39   13.10
  -8   6   2   64.29   12.00
  -8   6  -2   73.79   11.70
   8   6  -2   66.99   14.70
  -8  -6  -2   76.49   15.00
  -9  -6  -2   16.30   16.60
   9   6  -2   15.80   15.80
  -9  -6   2   17.60   16.50
   9  -6   2   38.90   15.20
   1  -7   2  223.78    9.80
   1   7  -2  226.48   17.50
  -1  -7   2  215.98   12.20
   1  -7   2  212.88   11.00
   1   7  -2  218.78   21.20
  -1  -7  -2  216.58   10.10
  -1   7   2  231.58    9.80
   1  -7  -2  225.78    9.40
   1  -7  -2  223.58   11.50
  -1   7  -2  219.48   14.40
  -1   7   2  214.68   16.80
  -1   7  -2  215.18    7.90
  -2   7  -2  209.18    7.10
  -2  -7  -2  214.78   10.50
   2   7  -2  215.78   26.60
  -2  -7   2  220.68   12.20
  -2   7  -2  206.68   13.90
  -2   7   2  210.08    8.60
  -2   7   2  207.18   15.30
   2  -7   2  205.58   10.60
   2   7  -2  220.78   28.70
   2  -7  -2  204.78   11.10
  -3   7  -2    6.20    7.20
   3  -7  -2    7.70    9.60
  -3   7  -2   10.10    9.60
  -3  -7  -2   12.70   11.70
   3  -7   2    5.40    9.40
  -3  -7   2   12.70    9.50
  -3   7   2    4.00    6.20
   3   7  -2    6.50   23.90
  -3   7   2    7.10   12.70
   4  -7  -2   13.60   10.80
   4   7  -2   18.30   17.00
  -4  -7   2   20.00   15.80
  -4   7  -2   15.70    7.40
   4  -7   2   15.60   10.50
  -4   7  -2   15.20   10.30
  -4   7   2   14.80   10.90
  -4   7   2   18.30    6.00
  -5   7  -2  210.18    8.20
   5   7  -2  214.18   16.40
  -5  -7   2  224.78   15.50
  -5  -7  -2  227.28   19.70
   5  -7  -2  217.38   12.10
  -5   7   2  204.68   13.80
  -5   7  -2  217.18   11.50
   5  -7   2  207.28    9.90
  -5   7   2  211.58    7.00
   6  -7  -2  510.25   12.10
  -6  -7  -2  546.85   19.90
  -6   7   2  483.25    9.40
  -6  -7   2  553.94   16.50
  -6   7  -2  482.35    9.40
  -6   7  -2  550.14   12.50
   6  -7   2  510.05   11.60
  -6   7   2  521.65   13.00
   6   7  -2  514.35   17.80
   7  -7   2    5.30   11.00
  -7   7  -2   11.70   11.40
  -7  -7  -2   11.70   16.20
   7  -7  -2   12.50   10.80
   7   7  -2    5.40   12.90
  -7  -7   2    8.10   14.90
  -7   7   2    4.10   11.50
   8  -7   2   10.20   12.60
  -8  -7   2   -2.00   16.40
  -8   7   2   12.50   12.30
   8   7  -2   -0.60   15.90
  -8  -7  -2    0.40   16.70
  -9  -7  -2   59.59   18.90
   9  -7   2   53.79   15.00
  -9   7   2   48.40   11.10
  -9  -7   2   68.49   18.30
  -9   7  -2   41.20   10.90
   0   8   2   81.89   10.10
   0  -8   2   68.89    9.50
   0  -8  -2   73.69   12.60
   0   8   2   74.19   19.50
   0   8  -2   74.69   15.00
   0  -8  -2   72.49    8.10
   0   8  -2   75.79    8.00
   1  -8   2  708.03   11.00
   1  -8  -2  716.23    9.80
  -1  -8   2  664.13   11.70
   1   8  -2  723.53   21.80
   1  -8  -2  707.73   14.20
  -1   8  -2  725.53   10.90
  -1   8   2  733.83    9.90
  -1  -8  -2  675.03   13.20
  -1   8  -2  694.73   18.10
   1   8  -2  731.43   26.00
  -1   8   2  685.63   19.20
   2  -8   2   58.29    9.60
  -2  -8  -2   62.79   11.60
  -2   8  -2   64.89   13.10
  -2   8  -2   62.19    7.80
  -2   8   2   71.89    6.80
  -2   8   2   74.69   14.00
  -2  -8   2   62.79    9.70
   2  -8  -2   62.59    9.80
  -3   8  -2    2.30    7.50
   3  -8  -2    1.80    7.80
  -3   8   2   -0.40    6.20
   3  -8   2    6.30    7.90
  -3   8   2    1.20   11.00
  -3   8  -2    4.30   10.10
  -3  -8   2    1.50    9.40
  -3  -8  -2    5.50   11.50
  -4   8  -2   96.09   13.30
   4  -8  -2   79.79    8.80
   4   8  -2   83.59   24.20
  -4   8  -2   83.09    7.60
  -4  -8   2   82.29    9.00
  -4   8   2   80.09    6.30
   4  -8   2   88.09   10.70
  -4   8   2   79.79   13.80
  -5   8   2  110.29    6.60
   5  -8   2  114.19   11.30
  -5  -8   2  130.29   17.90
   5   8  -2  122.09   18.60
  -5   8   2  111.49   14.10
   5  -8  -2  123.59   11.60
  -5   8  -2  107.09    7.90
  -5   8  -2  125.09   13.70
  -6  -8   2    4.40   15.20
   6   8  -2    3.00   16.70
   6  -8   2    5.20   11.60
  -6   8  -2    5.40    6.40
  -6   8  -2    4.40   11.10
  -6  -8  -2    2.80   20.00
  -6   8   2    9.60    7.90
  -6   8   2    4.70   14.10
   6  -8  -2   -5.20   10.10
  -7  -8  -2   27.20   19.60
  -7  -8   2   29.80   16.30
   7  -8   2   28.10   10.80
   7   8  -2   25.10   16.30
  -7   8  -2   32.90   11.60
  -7   8  -2   22.90    7.10
  -7   8   2   18.30   14.80
  -7   8   2   27.40    7.20
  -8   8   2    7.10    7.80
  -8  -8   2    0.00   17.80
  -8   8  -2   -6.40   12.20
  -8   8  -2    8.40    9.70
  -8  -8  -2    4.80   20.40
  -9   8  -2    9.00    9.00
  -9  -8  -2    0.80   21.70
  -9  -8   2    6.10   19.60
  -9   8   2    1.30   11.20
   9  -8  -2   10.60   14.90
   9  -8   2    9.60   14.20
   1  -9  -2   61.89    8.60
  -1   9  -2   58.79    8.70
  -1   9   2   54.69   15.00
  -1  -9  -2   52.19   10.80
   1  -9  -2   57.19   10.80
   1   9  -2   52.19   15.40
   1  -9   2   55.49    7.20
  -1  -9   2   51.29    8.90
  -1   9   2   56.39    7.30
  -1   9  -2   53.49   15.50
   1   9  -2   58.19   18.40
   2  -9  -2   38.80    9.50
  -2   9  -2   47.10    6.80
  -2   9   2   42.10   14.80
   2  -9   2   41.50    9.20
  -2   9   2   46.10    8.20
  -2  -9   2   48.00    9.30
  -2  -9  -2   43.70   11.40
  -2   9  -2   46.00   12.70
  -3  -9  -2  468.65   11.00
   3  -9   2  427.66   11.10
   3  -9  -2  449.06   11.30
  -3  -9   2  480.85   12.50
  -3   9  -2  440.36    8.10
  -3   9   2  421.16   15.80
  -3   9   2  426.86    9.00
  -3   9  -2  428.26   15.30
   4  -9  -2  102.69   10.10
  -4   9   2   98.29    8.30
  -4  -9   2  122.09   11.30
  -4   9  -2   89.69    8.10
   4  -9   2  102.29   10.10
  -4   9  -2   99.39   13.50
  -4  -9  -2  106.99    9.50
  -4   9   2   92.59   11.60
  -5   9   2    5.70   14.00
  -5   9  -2    9.20   13.70
  -5   9  -2    7.30    6.30
   5  -9  -2    9.60    9.00
  -5   9   2   10.20    7.70
   5  -9   2   14.40   10.80
  -5  -9  -2   10.00    8.70
  -5  -9   2   10.00   10.50
   6  -9  -2   10.70    9.50
   6  -9   2   11.00    9.40
  -6   9   2   16.70    8.10
  -6   9  -2   11.00    8.20
  -6   9   2   10.10   14.50
  -7   9   2  285.67   13.70
  -7   9   2  224.48   10.00
  -7  -9   2  249.18   23.80
  -7   9  -2  240.38    8.30
  -7   9  -2  262.37   13.40
  -8   9   2   45.10   13.80
  -8  -9   2   24.80   23.50
  -8   9   2   24.40   10.10
  -8   9  -2   30.70   10.10
  -9   9   2    9.70   15.40
  -9   9  -2   11.10   18.50
  -9   9   2    4.60    9.50
  -9   9  -2    1.90    9.20
  -9  -9   2    3.10   28.20
   9  -9   2    0.60   14.70
   0  10   2  148.79    8.60
   0  10  -2  161.58   10.10
   0 -10   2  146.89    8.50
   0  10  -2  172.68   16.20
   0  10   2  157.58   17.00
   0 -10  -2  142.29   10.10
   1 -10  -2  375.56    8.70
   1  10  -2  393.96   22.80
  -1  10  -2  408.06   10.20
  -1 -10   2  368.86   12.00
  -1  10  -2  396.56   17.60
   1 -10  -2  372.56   12.50
   1  10  -2  393.06   18.80
  -1 -10  -2  378.06   11.70
  -1  10   2  385.86   18.00
  -1  10   2  407.56    8.80
   1 -10   2  372.46   10.00
   2 -10  -2    2.60    9.10
  -2  10  -2   12.20   13.30
  -2 -10   2   10.00    8.80
  -2 -10  -2    1.70   10.60
  -2  10   2    7.70    6.50
  -2  10   2    5.40   14.40
  -2  10  -2   -1.30    8.00
   3 -10  -2  770.42   12.90
   3 -10   2  790.02   11.40
  -3  10   2  807.52   10.50
  -3 -10  -2  849.81   12.30
  -3 -10   2  875.81   14.10
  -3  10   2  787.02   17.90
  -3  10  -2  845.42    9.60
  -3  10  -2  833.62   17.40
  -4  10  -2   69.39   14.20
  -4  10  -2   63.29    7.90
   4 -10  -2   55.19   10.40
  -4 -10   2   54.69    9.10
  -4  10   2   56.89   14.60
  -4 -10  -2   58.99   11.00
  -4  10   2   48.60    6.80
   4 -10   2   55.49    8.40
  -5  10  -2    6.30    8.20
  -5  10  -2   11.90   14.00
  -5 -10   2    6.20   10.60
  -5  10   2   14.50   14.50
   5 -10   2    7.60   10.60
  -5  10   2    5.60    6.60
  -5 -10  -2   -1.50   10.80
   5 -10  -2   13.00   10.60
  -6 -10   2   19.20    9.20
  -6 -10  -2   17.20   10.90
  -6  10   2   12.60    7.10
  -6  10   2    5.20   15.10
   6 -10   2   21.50    9.40
  -6  10  -2    6.30    8.60
  -7  10  -2   69.19    8.00
  -7  10   2   60.29    9.60
  -7 -10   2   70.09   11.90
  -7  10  -2   98.39   13.40
  -7  10   2   83.59   13.00
  -7 -10  -2   99.59   10.00
   8 -10  -2   14.70   12.20
  -8  10  -2   22.70   10.40
  -8  10   2   10.30   10.60
   8 -10   2    7.30   12.40
   1  11  -2   39.40   19.30
  -1  11   2   31.20    8.90
  -1  11  -2   39.60   15.00
   1 -11  -2   32.80   10.50
   1 -11  -2   34.40    6.90
  -1  11  -2   35.80    7.10
  -1 -11   2   32.20   10.30
  -1 -11  -2   42.70    8.30
   1 -11   2   36.70    8.60
  -1  11   2   33.10   14.90
   1  11  -2   36.90   17.70
  -2 -11   2   16.70   11.20
  -2  11  -2   18.60   13.40
  -2 -11  -2   10.50    9.40
  -2  11   2   16.70    8.70
   2 -11  -2    5.70    9.10
  -2  11   2    2.30   13.10
  -2  11  -2   11.60    7.10
   3 -11   2   30.10    9.30
  -3 -11  -2   30.40    9.30
  -3  11  -2   24.60   14.20
  -3  11  -2   26.60    6.80
  -3 -11   2   36.00   11.30
  -3  11   2   29.30   14.60
  -3  11   2   33.80    8.40
   3 -11  -2   33.20    9.60
  -4  11  -2   12.60   14.80
   4 -11  -2    8.60   10.60
  -4 -11  -2   10.20   11.50
  -4  11  -2    5.60    8.40
   4 -11   2    8.80   10.60
  -4 -11   2   14.50    9.10
  -4  11   2    6.40   15.40
  -4  11   2   11.00    6.90
   5 -11   2  248.28   11.70
  -5  11   2  246.48    8.00
  -5  11  -2  235.38    9.20
  -5 -11  -2  271.77   11.80
  -5  11  -2  265.77   16.00
  -5  11   2  249.48   16.40
   5 -11  -2  246.58   12.10
  -5 -11   2  270.87    9.80
  -6 -11   2   11.80    9.00
  -6  11   2    9.80    7.70
  -6 -11  -2    9.40   11.40
  -6  11  -2    2.20    8.90
  -6  11   2    5.40   13.30
   6 -11   2   13.90    9.70
  -6  11  -2   27.20   13.10
   7 -11   2  127.09   11.40
  -7  11   2  107.09   10.30
  -7 -11  -2  118.29   10.30
  -7 -11   2  100.19   10.00
  -7  11  -2   90.89    8.50
  -7  11   2  121.39   14.70
  -8  11  -2   22.30    9.20
  -8  11   2   21.90   11.40
  -8 -11   2   17.60   12.80
  -8 -11  -2    8.80   10.70
   0  12   2   29.10   15.20
   0  12   2   12.20   10.10
   0 -12   2   34.40    9.60
   0  12  -2   22.90   16.60
   0 -12  -2   30.40    7.80
   0  12  -2   22.30    8.00
   1 -12   2 1253.27   13.00
  -1 -12  -2 1245.18   14.40
  -1 -12   2 1253.87   13.00
  -1  12  -2 1334.27   20.90
  -1  12  -2 1362.86   13.20
   1 -12  -2 1260.97   11.60
   1  12  -2 1375.56   31.80
   1  12  -2 1310.97   33.10
   1 -12  -2 1287.77   17.30
  -1  12   2 1330.37   21.40
  -1  12   2 1402.06   12.20
  -2 -12  -2  111.19    9.40
  -2  12  -2  116.89   15.60
  -2  12  -2  106.49    7.30
   2 -12  -2  112.69   11.40
  -2  12   2  103.29    9.10
  -2  12   2  106.49   16.10
  -2 -12   2  120.49   11.40
  -3  12  -2  165.38   14.80
  -3  12  -2  164.08    9.30
   3 -12  -2  166.18   11.60
  -3  12   2  157.08    7.80
  -3 -12  -2  173.98   12.20
  -3 -12   2  161.38   10.10
  -3  12   2  151.58   14.80
  -4 -12   2    7.60   10.80
  -4  12   2   14.30   16.10
  -4  12  -2    1.60    8.60
  -4 -12  -2   14.00   11.40
  -4  12   2    1.40    7.10
   4 -12  -2    7.10    8.40
   4 -12   2   10.60   10.20
  -4  12  -2    4.00   15.30
  -5  12  -2  399.06   10.40
   5 -12   2  389.96   10.40
  -5  12   2  385.06    9.20
  -5  12   2  396.06   14.90
  -5 -12   2  440.06   12.70
  -5 -12  -2  439.46   12.80
  -6 -12  -2   36.00   11.60
  -6 -12   2   25.40    9.20
  -6  12  -2   22.90    9.60
   6 -12   2   29.40   10.40
  -6  12   2   19.90    7.90
  -6  12   2   21.80   17.10
  -6  12  -2   32.80   14.30
  -7  12   2   75.09    9.20
  -7 -12   2   85.19   10.40
  -7 -12  -2   63.29   12.70
  -7  12  -2   53.19    8.90
  -7  12  -2   97.29   15.50
   7 -12   2   92.29   11.80
  -8 -12  -2    4.50   13.40
  -8 -12   2    3.50   10.90
  -8  12   2    6.60   16.60
   8 -12  -2    5.60   12.90
  -8  12   2   10.10    9.80
  -8  12  -2    6.40   16.50
  -8  12  -2   11.90    9.50
  -1 -13  -2   75.49    9.10
  -1  13  -2   75.19   14.50
  -1  13   2   68.99   16.70
   1 -13   2   70.79   10.00
  -1  13  -2   75.89    8.20
   1 -13  -2   67.49    9.80
  -1  13   2   74.89   10.00
  -1 -13   2   64.59   11.00
  -2  13   2   12.00    9.30
  -2  13  -2    9.30   13.10
  -2  13  -2    8.50    7.60
   2 -13  -2    7.80    9.60
  -2 -13   2    1.80   11.30
  -2 -13  -2    2.30    9.50
  -2  13   2    8.00   15.50
   3 -13  -2   64.19   10.10
  -3  13  -2   74.69    7.70
  -3  13  -2   69.99   14.60
  -3 -13  -2   84.39    9.50
  -3  13   2   74.59    9.50
  -3 -13   2   74.89   11.70
  -3  13   2   66.19   14.80
  -4  13  -2  116.99   16.50
  -4 -13  -2  153.98   10.10
  -4 -13   2  139.79   12.00
  -4  13   2  121.99    9.90
  -4  13   2  117.59   15.90
  -4  13  -2  121.59    7.70
  -5  13   2  196.98   10.30
  -5  13  -2  219.98   17.00
  -5  13  -2  197.28   10.20
  -5 -13   2  190.58   12.10
   5 -13  -2  194.08   10.30
  -5 -13  -2  218.18   10.40
  -6 -13   2   13.20   11.90
  -6  13   2   10.40   15.20
  -6  13  -2   12.30   10.20
  -6  13   2    7.50   10.30
  -6 -13  -2    8.30   12.00
   7 -13  -2   25.30   14.60
  -7  13   2   39.60   16.40
  -7  13   2   20.00   11.50
  -7  13  -2   15.40   11.30
  -7 -13  -2   11.80   12.70
  -7 -13   2   23.80   12.60
   0  14   2   59.59   20.60
   0  14  -2   55.99   17.60
   0  14  -2   54.79   15.80
   0 -14   2   51.79    8.60
   0 -14  -2   37.40   10.20
  -1 -14  -2  866.01   13.40
   1 -14  -2  842.92   12.60
  -1  14  -2  928.51   12.80
  -1  14  -2  879.11   19.20
  -1 -14   2  863.41   13.40
   1 -14   2  794.52   12.70
  -1  14   2  934.11   11.40
  -1  14   2  913.41   21.40
  -2  14   2   10.80   13.60
  -2 -14  -2   19.20    9.70
  -2  14  -2    6.80    8.00
  -2  14   2   18.80    9.90
  -2 -14   2    3.00   11.60
  -2  14  -2   11.70   13.80
  -3 -14   2  674.93   14.10
  -3  14  -2  675.03   17.10
  -3  14  -2  655.63   11.40
  -3 -14  -2  720.93   14.30
  -3  14   2  652.73   17.70
  -3  14   2  652.63   11.90
   3 -14  -2  620.14   13.20
  -4  14  -2    9.20    9.70
  -4  14   2    6.90    8.00
   4 -14  -2    4.70   11.30
  -4  14   2   -1.30   15.90
  -4 -14  -2    7.60   12.10
  -4 -14   2    1.00    9.60
   5 -14  -2   19.40   12.10
  -5 -14  -2   13.70   12.00
  -5  14   2    8.80    8.20
  -5  14   2   23.20   14.10
  -5  14  -2   -5.30    8.30
  -5 -14   2   10.90    9.40
  -6 -14   2    6.00   12.10
  -6  14   2   -2.60   16.00
  -6 -14  -2    6.00   10.20
   6 -14  -2    0.40   13.40
  -6  14  -2   27.90   15.40
  -6  14  -2    9.60    8.70
  -6  14   2    0.50   11.20
  -7  14   2    5.20   12.50
  -7  14  -2    7.50   10.00
  -7 -14   2    1.10   13.20
  -7 -14  -2    7.60   10.80
   7 -14  -2   17.30   14.70
  -7  14  -2   11.90   21.00
   1 -15   2   -1.50    8.60
  -1 -15   2   10.50    9.30
  -1 -15  -2    3.30    9.30
  -1  15   2    6.70    8.80
   1 -15  -2    1.10    8.60
  -1  15  -2    7.40   14.70
  -1  15  -2   -8.30    8.80
  -1  15   2    8.10   17.30
  -2  15   2   67.59    8.60
  -2  15  -2   72.39   13.80
  -2 -15  -2   71.69   12.10
  -2  15   2   71.39   16.60
  -2 -15   2   79.49    9.80
  -2  15  -2   67.69    8.60
  -3 -15  -2   92.49   12.90
  -3 -15   2   96.69   12.30
  -3  15   2   95.99   10.60
  -3  15  -2   96.69   15.10
  -3  15   2   88.79   15.50
  -3  15  -2   92.69   10.80
  -4  15   2    6.40   16.30
  -4  15   2    1.80    8.60
   4 -15  -2    1.00   11.80
  -4 -15   2    9.70   10.00
  -4  15  -2    7.20    8.50
  -4 -15  -2    0.50   10.40
  -5 -15   2   35.80   12.50
  -5  15   2   22.30   11.00
   5 -15  -2   28.90   12.70
  -5 -15  -2   25.30   12.80
  -5  15  -2   37.50   11.10
  -6  15   2  103.49   10.90
  -6  15  -2  214.08   20.70
   6 -15  -2  173.28   15.10
  -6 -15   2  110.29   13.90
  -6 -15  -2  100.69   14.00
  -6  15  -2   91.09   12.50
   0  16  -2   67.59   24.50
   0  16  -2   66.59   22.80
   0 -16   2   65.79    9.60
   0 -16  -2   51.49   11.50
  -1  16  -2  584.94   20.40
  -1 -16  -2  540.25   11.60
  -1  16   2  613.44   23.50
  -1  16  -2  633.94   13.20
  -1  16   2  626.94   13.40
  -1 -16   2  583.24   13.70
  -2 -16  -2    0.60   12.20
  -2  16  -2    5.30   11.30
  -2  16   2    3.90    9.40
  -2  16  -2   11.30   15.90
  -2 -16   2    5.20   12.50
  -2  16   2   -1.00   16.30
  -3  16   2  224.48   12.00
  -3 -16  -2  257.17   13.60
  -3  16  -2  236.58   11.90
  -3 -16   2  244.28   13.30
  -3  16  -2  239.58   16.30
  -4 -16   2   41.10   13.00
  -4  16  -2   28.50    9.50
  -4  16   2   30.80   17.00
  -4 -16  -2   33.20   10.90
  -4  16   2   37.30   11.60
  -5 -16   2   61.79   11.00
  -5  16   2   59.89   10.40
  -5 -16  -2   66.59   13.10
  -5  16  -2   52.89   11.90
  -5  16  -2   79.29   18.30
  -1  17  -2    8.90   20.10
  -1  17  -2    1.60   18.00
  -1  17   2    2.10   22.20
  -1 -17  -2   11.80   12.90
  -1 -17   2   15.80   12.80
  -2  17  -2    1.00    9.90
  -2  17  -2    9.60   16.70
  -2  17   2    2.20   17.30
  -2 -17   2   18.00   12.40
  -2  17   2    7.80   12.10
  -2 -17  -2    3.10   10.80
  -3  17  -2   34.30   15.90
  -3 -17   2   26.80   12.90
  -3 -17  -2   29.40   13.50
  -3  17   2   30.50   18.40
  -3  17  -2   26.50   11.90
  -3  17   2   17.70   12.30
  -4 -17  -2  117.59   14.30
  -4  17   2   97.99   13.30
  -4 -17   2   86.79   13.90
  -4  17   2  110.69   18.20
  -4  17  -2  118.29   13.20
  -4  17  -2  117.09   17.50
   0 -18  -2  -10.90   13.10
   0 -18   2    8.70   10.60
  -1 -18  -2  286.57   12.20
  -1  18  -2  276.97   25.60
  -1  18   2  301.27   34.60
  -1  18  -2  281.57   24.60
  -1  18   2  281.87   30.60
  -1 -18   2  264.27   12.30
  -2  18  -2   26.30   10.60
  -2  18  -2   28.20   20.10
  -2 -18   2   38.50   11.20
  -2  18   2   21.90   21.70
  -2 -18  -2   21.20   13.80
  -2  18   2   48.50   11.10
  -3  18  -2  111.39   19.20
  -3 -18   2   84.39   14.80
  -3  18   2  120.89   20.70
  -3  18   2   62.79   14.00
  -3  18  -2   82.99   13.90
  -3 -18  -2   99.49   11.90
  -1 -19  -2   17.30   14.60
  -1  -1   3  117.89   21.90
   1   1  -3  101.99   22.60
   1  -1  -3  101.69   18.10
  -1   1   3  108.19   18.40
  -1   1  -3  108.19   13.80
  -2   1   3   86.39   13.90
  -2   1  -3   91.89   11.80
   2  -1   3   94.99   10.30
   2  -1  -3   79.89   12.20
  -2  -1   3   95.99   16.10
   2   1  -3   91.19   20.20
  -2  -1  -3   79.59   14.00
   2   1   3   86.59   15.60
   3  -1  -3  121.89   12.50
   3  -1   3  103.39   12.50
   3   1   3  102.79   12.90
   3   1  -3  108.29   16.50
  -3  -1   3  105.99   12.40
  -3   1  -3  109.39   11.60
  -3  -1  -3  117.99   11.50
  -3   1   3  119.89   10.90
  -4  -1   3   18.40   10.90
   4  -1   3   31.40   12.40
  -4  -1  -3   27.00   10.20
  -4   1  -3   26.00    8.90
   4   1   3   26.10   12.20
  -4   1   3   20.20   11.80
   4  -1  -3   27.30   11.80
   4   1  -3   19.20   15.90
   5  -1   3    4.90   10.30
   5   1  -3    4.80   15.60
   5  -1  -3   -6.20   11.60
   5   1   3    1.50   12.80
  -5   1  -3   10.10   10.30
  -5  -1   3    0.30   10.30
  -5   1   3    6.80   11.20
  -5  -1  -3    7.40   10.00
  -6   1   3  342.07   12.60
   6  -1   3  299.87   14.60
  -6  -1   3  319.37   10.60
  -6   1  -3  351.46   12.00
   6   1   3  315.67   14.70
   6   1  -3  346.87   17.70
  -6  -1  -3  343.57   12.40
   6  -1  -3  346.57   16.80
  -7   1   3   69.49   10.00
   7   1   3   59.49   14.10
   7  -1   3   67.59   15.10
  -7   1  -3   74.09   11.70
   7  -1  -3   55.99   16.50
   7   1  -3   48.60   15.60
  -7  -1   3   59.69   12.10
  -7  -1  -3   71.29   11.70
   8   1  -3   29.00   14.80
   8  -1   3   19.50   16.50
  -8   1   3   19.30   10.30
   8   1   3   28.50   15.50
   9   1   3   26.80   15.20
  -9  -1  -3   28.60   13.90
   9  -1  -3   32.20   13.40
  -9  -1   3   23.10   11.20
  10   1  -3   33.80   15.90
 -10   1   3   28.90   15.60
  10  -1  -3   18.10   14.60
 -10  -1   3   23.70   16.00
 -10  -1  -3   27.80   15.90
 -10   1  -3   29.40   15.60
   0  -2  -3  201.48   25.50
   0  -2  -3  198.48   15.60
   0   2   3  182.48   25.00
   0   2   3  201.58   16.70
   0  -2   3  189.68   15.40
   0   2  -3  193.28   15.80
  -1   2   3   23.00    9.40
  -1   2   3   26.50   18.70
   1  -2  -3   23.40   16.40
   1   2  -3   26.70   18.70
  -1   2  -3   22.50   11.30
  -1  -2   3   29.10   19.10
  -1  -2  -3   25.00   19.80
  -2  -2   3  782.62   21.20
  -2  -2  -3  803.62   19.80
   2  -2  -3  741.73   17.10
   2  -2   3  749.03   13.90
  -2   2   3  755.32   15.90
   2   2  -3  773.92   25.70
  -2   2  -3  753.92   13.90
  -3  -2  -3  194.38   11.90
   3   2   3  162.28   15.30
   3   2  -3  170.38   17.90
   3  -2  -3  152.38   14.00
  -3  -2   3  163.48   12.90
  -3   2  -3  165.88   10.00
  -3   2   3  165.38   13.40
   3  -2   3  158.58   12.40
   4  -2   3   77.49   12.70
  -4  -2  -3   85.19   12.20
  -4   2   3   74.39   12.20
   4   2   3   69.79   12.70
   4  -2  -3   64.49   11.10
   4   2  -3   76.29   17.40
  -4   2  -3   77.29   11.60
  -4  -2   3   62.99   11.70
  -5   2  -3    9.20    9.20
   5  -2  -3    3.80   14.20
  -5  -2  -3    5.60    9.90
   5   2   3    7.30   12.10
  -5   2   3    5.20    9.50
  -5  -2   3    4.40   10.40
   5   2  -3   -2.50   15.30
   5  -2   3   11.60   10.50
  -6   2  -3  118.09   11.20
  -6  -2  -3  113.09   10.90
  -6   2   3  108.59    9.70
   6   2  -3  116.99   15.00
  -6  -2   3  108.79   11.30
   6   2   3  114.49   13.90
   6  -2   3  106.89   13.70
   6  -2  -3  106.09   12.00
  -7  -2   3   22.90   11.20
  -7   2   3   17.30   11.70
   7   2   3   21.10   15.10
   7   2  -3   19.60   13.10
   7  -2   3   18.80   14.60
  -7   2  -3   19.00   11.40
  -7  -2  -3   21.10   11.20
   7  -2  -3   28.10   13.10
   8   2   3   49.50   14.80
   8   2  -3   40.90   14.30
  -8   2   3   37.50   13.10
  -8  -2   3   50.49   12.70
   8  -2   3   36.40   17.30
  -9  -2   3   46.30   14.10
  -9  -2  -3   39.60   13.50
 -10  -2  -3    7.20   15.70
 -10  -2   3   19.60   16.00
  10  -2  -3   13.30   18.90
 -10   2   3    9.10   16.60
  10   2  -3    6.60   15.70
 -10   2  -3   13.80   16.00
   1  -3  -3   46.20   14.60
  -1   3  -3   49.70    8.90
  -1   3   3   41.00    9.40
  -1  -3   3   41.50   19.60
  -1   3  -3   44.90   13.10
  -1  -3  -3   46.80   24.30
  -1  -3   3   50.09   16.20
  -1   3   3   45.90   18.90
   1   3  -3   44.10   18.60
  -2   3   3  274.57   15.50
  -2   3  -3  268.97   13.10
  -2  -3   3  276.07   18.70
   2  -3   3  257.97   10.20
   2   3  -3  281.07   19.70
  -2  -3  -3  277.07   17.10
   2  -3  -3  273.07   13.90
   3   3  -3  475.95   20.80
   3   3   3  424.86   17.80
  -3   3  -3  461.15   13.60
  -3  -3  -3  470.05   15.20
  -3   3   3  444.16   13.10
   3  -3  -3  448.06   14.90
   3  -3   3  451.15   11.90
  -3  -3   3  464.85   16.50
   4  -3   3  450.55   13.50
  -4  -3  -3  458.15   12.50
   4  -3  -3  448.16   12.30
   4   3  -3  476.95   18.80
  -4   3  -3  478.85   12.80
  -4  -3   3  457.45   15.10
  -4   3   3  454.95   13.80
   4   3   3  434.46   16.20
   5  -3   3   42.10   10.20
  -5  -3  -3   52.59   11.90
  -5   3  -3   59.19   11.50
   5   3  -3   57.79   14.60
   5  -3  -3   40.30   13.50
  -5   3   3   57.89   12.10
  -5  -3   3   53.39   11.00
   5   3   3   45.30   15.00
  -6  -3   3   14.30   10.50
   6   3  -3    6.40   13.60
   6   3   3   17.30   14.30
   6  -3   3   11.90   13.30
  -6   3  -3   11.40    9.00
   6  -3  -3    9.80   14.30
  -6   3   3   13.90    9.90
  -6  -3  -3   15.70   10.00
  -7   3  -3  149.69   10.40
   7  -3  -3  134.19   15.90
  -7  -3  -3  148.09   13.00
   7   3  -3  133.19   13.30
   7  -3   3  127.69   14.70
  -7   3   3  149.79   13.10
   7   3   3  137.59   14.70
  -7  -3   3  136.29   11.70
   8  -3   3  133.99   14.60
  -8   3   3  148.69   13.80
   8   3  -3  171.88   14.20
   8  -3  -3  147.09   15.00
  -8  -3  -3  158.58   14.40
   8   3   3  163.48   14.20
  -8   3  -3  168.08   11.50
  -9  -3  -3   58.89   16.00
  -9  -3   3   74.09   14.10
  -9   3  -3   65.39   11.70
 -10  -3   3    9.50   16.00
 -10  -3  -3    4.70   16.10
 -10   3  -3   20.30   16.30
  10   3  -3    9.70   15.50
  10  -3  -3    4.00   15.70
   0  -4   3 3546.25   26.10
   0  -4  -3 3453.15   37.30
   0   4   3 3710.03   51.39
   0   4  -3 3663.73   26.40
   0  -4  -3 3603.44   26.00
   0   4   3 3743.13   27.40
  -1  -4   3  790.52   16.10
  -1  -4  -3  774.02   17.20
   1  -4  -3  825.12   19.00
  -1   4   3  829.32   12.40
  -1   4  -3  788.42   17.90
  -1   4   3  791.52   24.30
  -1   4  -3  810.12   12.40
   1   4  -3  776.52   22.30
  -1  -4  -3  821.42   33.50
   1  -4   3  822.32   12.80
   1  -4  -3  816.52   12.00
   2   4  -3  215.18   19.80
  -2   4   3  228.98   15.80
   2  -4  -3  217.18   11.30
  -2   4  -3  214.28    8.50
   2  -4   3  224.08   12.10
  -2   4  -3  225.18   11.20
  -2   4   3  223.78    8.60
  -2  -4  -3  236.78   19.30
  -2  -4   3  227.48   18.20
   3  -4  -3   37.30   12.10
  -3  -4  -3   27.60   12.50
  -3   4  -3   35.70    9.90
   3  -4   3   21.10   11.30
   3   4  -3   23.60   17.30
  -3   4   3   35.50   11.00
  -3  -4   3   28.80   13.20
  -4   4  -3 1367.36   15.90
   4   4   3 1267.07   21.90
  -4  -4  -3 1351.66   18.90
   4  -4   3 1297.67   15.80
   4  -4  -3 1302.87   15.20
  -4  -4   3 1326.37   19.60
   4   4  -3 1366.36   23.40
  -4   4   3 1347.97   17.00
  -5   4   3  149.69   10.90
   5   4  -3  150.08   14.30
  -5   4  -3  144.89   10.20
   5  -4   3  138.89   13.00
  -5  -4  -3  143.89   12.20
  -5  -4   3  144.79   12.00
   5   4   3  136.99   14.90
   5  -4  -3  132.39   13.40
   6   4  -3  108.19   12.40
  -6  -4   3  103.49   13.10
   6  -4   3   89.79   11.30
  -6  -4  -3  102.89   11.90
   6  -4  -3   98.39   14.20
  -6   4   3  108.79   10.50
   6   4   3   92.79   14.60
  -6   4  -3   83.69   10.00
  -7  -4   3   56.99   11.60
  -7   4  -3   66.69   10.50
   7   4  -3   52.19   14.30
  -7  -4  -3   49.90   11.20
  -7   4   3   59.29   10.60
   7  -4   3   60.99   12.10
   7   4   3   54.79   14.40
   8  -4   3   11.60   16.40
   8  -4  -3    8.90   13.50
  -8  -4  -3    0.30   12.00
  -8  -4   3    3.70   12.60
  -8   4   3   -1.30   11.10
   9   4  -3    4.90   13.60
  -9  -4  -3   10.10   13.70
   9  -4  -3    0.40   15.70
  -9   4   3    3.70   12.10
  -9  -4   3    5.40   14.10
  10  -4  -3   40.30   21.50
  10   4  -3   45.00   15.80
 -10   4  -3   35.40   14.00
 -10  -4   3   39.60   16.00
 -10  -4  -3   48.40   16.10
  -1  -5  -3   56.29   20.10
  -1   5  -3   57.69   12.50
  -1   5  -3   56.59    8.30
   1  -5   3   56.89    7.20
  -1  -5  -3   56.09   11.70
  -1   5   3   57.59    8.40
   1  -5  -3   53.49    6.90
   1  -5  -3   64.29   11.70
  -1  -5   3   53.89   12.00
   1   5  -3   53.69   14.60
  -1   5   3   54.19   16.80
  -2   5   3   24.90    6.30
   2  -5   3   34.10   10.80
   2  -5  -3   31.60   11.30
  -2  -5  -3   29.10   31.60
   2   5  -3   24.50   16.10
  -2  -5   3   28.60   16.30
  -2   5  -3   31.50   12.30
  -2   5   3   33.40   11.70
  -2   5  -3   26.90    6.30
  -2  -5  -3   27.60   25.60
  -3   5   3   23.60   13.40
  -3   5   3   25.10    7.30
   3   5  -3   17.10   15.70
   3  -5  -3   21.10    9.60
  -3   5  -3   24.80   11.70
  -3  -5   3   19.10   12.60
  -3   5  -3   18.80    7.10
   3  -5   3   22.40    8.50
  -3  -5  -3   33.40   16.30
  -4  -5  -3   80.39   13.20
   4  -5  -3   79.29   12.00
   4   5  -3   91.89   15.60
  -4   5  -3   82.89    9.90
   4  -5   3   93.29   11.40
  -4  -5   3   87.89   13.00
  -4   5   3   79.89   11.00
  -5   5   3  814.12   15.40
   5  -5  -3  808.62   14.90
  -5   5  -3  825.42   14.40
  -5  -5  -3  776.22   16.10
   5   5  -3  828.52   18.80
   5  -5   3  763.52   14.20
  -5  -5   3  802.82   16.70
  -6   5  -3  297.77   13.00
   6   5  -3  275.17   15.80
   6  -5   3  256.87   13.50
  -6   5   3  280.17   11.60
  -6  -5   3  269.97   14.10
   6  -5  -3  266.67   12.00
  -6  -5  -3  274.27   13.90
  -7   5   3  183.58   13.50
   7  -5  -3  176.68   12.10
   7  -5   3  184.88   14.70
  -7  -5   3  191.38   14.80
  -7   5  -3  191.28   11.20
   7   5  -3  187.98   14.90
  -8   5   3   49.80   14.10
   8  -5   3   51.89   12.80
  -8  -5   3   40.20   13.30
  -8  -5  -3   49.30   14.30
   8   5  -3   41.20   14.60
   9   5  -3  158.38   16.10
  -9  -5   3  146.29   14.80
  -9  -5  -3  151.28   16.80
   9  -5  -3  134.19   15.40
 -10  -5  -3    8.20   19.20
  10   5  -3    8.10   17.30
 -10   5  -3   16.70   14.80
 -10  -5   3   12.60   18.20
  10  -5  -3   12.90   18.10
   0   6  -3  264.77    9.40
   0  -6  -3  245.88   14.20
   0   6   3  264.97    9.90
   0   6   3  260.07   23.50
   0  -6   3  246.78    9.10
   0  -6  -3  250.27    9.20
   0   6  -3  243.58   15.80
  -1   6   3  535.45   11.10
   1  -6  -3  527.95   14.70
  -1  -6  -3  519.45   27.00
   1  -6  -3  519.05   10.80
  -1  -6   3  497.25   13.80
  -1  -6  -3  492.05   13.70
  -1   6  -3  505.95   15.20
  -1   6   3  487.55   19.00
   1   6   3  501.45   28.00
   1   6  -3  494.55   18.20
  -1   6  -3  543.35   10.90
   1  -6   3  521.55   10.90
  -2   6  -3 2533.05   21.20
  -2   6   3 2383.26   23.50
  -2   6  -3 2511.05   15.30
  -2   6   3 2543.55   15.10
   2   6  -3 2566.24   36.90
  -2  -6  -3 2607.24   20.30
   2  -6   3 2491.75   19.50
   2  -6  -3 2550.74   20.80
  -2  -6   3 2624.74   20.40
  -3  -6   3  543.25   21.00
   3   6  -3  528.75   23.70
   3  -6   3  509.95   12.50
  -3   6   3  490.05   15.70
  -3   6  -3  499.05   12.00
   3  -6  -3  540.15   13.20
  -3   6  -3  497.85    7.80
  -3   6   3  500.35    9.30
   4  -6  -3    2.20    9.30
  -4   6  -3    3.70   12.10
  -4  -6   3    5.50   13.80
   4  -6   3    5.10   10.70
  -4   6  -3    3.20    5.90
  -4   6   3    4.60   13.00
  -4  -6  -3    0.80   14.30
  -4   6   3    2.50    7.20
   4   6  -3    0.40   16.00
  -5  -6  -3    6.60   13.40
   5  -6  -3    8.50   11.50
  -5   6   3    7.00   12.50
  -5  -6   3   10.90   13.10
   5   6  -3    9.10   13.40
  -5   6  -3   11.00    9.30
   5  -6   3   13.10   10.50
   6  -6   3   23.20   12.00
   6  -6  -3    9.60   12.60
  -6   6  -3   21.40   12.10
  -6  -6  -3   21.30   13.80
  -6   6   3    9.20   10.60
  -6  -6   3   22.70   12.90
   6   6  -3   31.70   13.50
  -7  -6  -3   49.10   13.50
   7   6  -3   54.79   14.10
  -7   6   3   39.20   13.80
  -7  -6   3   40.40   13.90
   7  -6   3   54.59   13.60
  -8  -6   3   19.90   14.60
   8  -6  -3    5.80   12.90
   8   6  -3   24.60   14.60
  -8  -6  -3   11.80   14.70
  -8   6  -3   25.40   11.70
   8  -6   3    6.90   16.00
  -8   6   3   21.00   11.40
   9   6  -3   75.69   16.10
  -9  -6  -3  100.49   18.90
   9  -6   3   67.39   15.10
  -9  -6   3   85.89   16.70
  -1   7  -3  190.78    9.00
  -1   7   3  184.78    7.70
   1   7  -3  192.68   16.80
   1  -7   3  188.18    9.10
   1   7  -3  178.98   14.60
  -1   7   3  173.58   20.70
   1   7   3  176.88   25.90
  -1   7  -3  183.08   16.10
   1  -7  -3  184.98    9.00
  -1  -7  -3  169.88   11.20
  -1  -7  -3  182.48   23.20
  -1  -7   3  167.78    9.60
   1  -7  -3  184.78   13.20
  -2   7  -3  131.39   11.20
   2  -7  -3  123.39    9.20
  -2  -7   3  132.39   10.40
  -2   7   3  122.29    8.30
  -2   7   3  110.09   15.50
   2   7  -3  127.89   20.20
  -2   7  -3  130.69    8.30
  -2  -7  -3  121.79   12.50
   2  -7   3  115.59    8.60
  -3  -7  -3  502.75   13.60
  -3   7  -3  451.85   11.90
   3  -7  -3  467.35   11.90
   3   7  -3  468.55   24.00
  -3  -7   3  495.65   13.50
  -3   7   3  460.85    9.40
   3  -7   3  443.06   10.10
  -3   7  -3  449.16    9.00
  -3   7   3  425.86   14.90
  -4  -7   3   36.20   14.60
  -4   7  -3   31.70    7.20
  -4   7  -3   38.20   12.60
   4  -7  -3   41.10    9.00
   4   7  -3   41.90   16.40
  -4   7   3   35.70    7.30
   4  -7   3   43.40   10.50
  -4   7   3   41.10   13.70
   5  -7  -3  458.65   12.80
  -5  -7   3  483.05   17.00
  -5  -7  -3  496.55   21.10
   5  -7   3  462.05   11.00
   5   7  -3  483.95   18.10
  -5   7  -3  509.35   12.60
  -5   7   3  466.15    9.40
  -5   7  -3  441.56    7.90
  -5   7   3  451.95   12.50
  -6   7  -3  117.89    8.10
  -6   7   3  117.29   11.60
  -6  -7  -3  124.09   16.80
  -6  -7   3  126.29   13.50
   6  -7  -3  140.79   13.00
   6   7  -3  130.49   15.10
   6  -7   3  122.49   10.30
  -6   7   3  121.79    7.10
  -6   7  -3  130.59   13.30
  -7  -7   3  323.57   14.80
   7   7  -3  317.17   14.70
  -7   7   3  325.87   15.00
  -7   7  -3  316.07   12.60
  -7  -7  -3  333.87   18.00
   7  -7  -3  308.97   12.20
   7  -7   3  306.07   14.60
  -7   7   3  286.17    8.50
  -8   7   3   26.20    7.90
  -8  -7  -3   48.70   17.60
  -8  -7   3   36.80   14.70
   8   7  -3   41.90   14.70
   9  -7   3   64.19   15.10
   9   7  -3   61.39   16.00
  -9  -7  -3   74.99   19.70
  -9  -7   3   67.49   16.60
  -9   7  -3   30.20   10.50
  -9   7   3   43.30    9.20
   0   8  -3  989.20   20.10
   0   8   3 1002.30   26.20
   0   8   3 1005.70   12.40
   0   8  -3 1011.80   13.30
   0  -8  -3  965.50   18.50
   0  -8  -3  940.01   11.80
   0  -8   3  948.01   11.90
  -1   8  -3  359.46   14.60
  -1  -8   3  326.67   12.00
   1   8  -3  348.67   16.80
  -1   8  -3  339.67    9.80
   1  -8  -3  334.27    9.50
   1   8   3  326.47   30.40
   1   8  -3  349.37   20.90
   1  -8  -3  326.57   11.40
  -1   8   3  362.26   10.00
   1  -8   3  342.17    8.40
  -1  -8  -3  328.67   11.90
  -1   8   3  356.26   20.30
  -2   8   3  675.43   10.70
   2   8  -3  681.63   27.90
  -2   8  -3  662.43   15.50
  -2  -8  -3  665.73   12.30
   2   8  -3  660.93   27.00
  -2  -8   3  690.13   14.40
   2  -8  -3  667.63   12.60
   2  -8   3  626.14   11.90
  -2   8   3  614.14   17.10
  -2   8  -3  663.43    9.20
  -3   8   3   35.70   13.60
  -3  -8   3   49.20   11.50
  -3  -8  -3   43.10   11.70
  -3   8  -3   38.90    7.70
  -3   8   3   40.80    7.80
  -3   8  -3   39.80   13.20
   3   8  -3   42.00   21.20
   3  -8  -3   44.00    8.10
   3  -8   3   33.60    7.60
   4  -8   3  223.78    9.10
   4   8  -3  226.98   22.00
  -4   8  -3  216.98    7.80
   4  -8  -3  229.88   11.70
  -4   8  -3  221.08   13.50
  -4   8   3  219.18    8.10
  -4   8   3  230.88   15.00
  -4  -8   3  241.38   11.10
  -5  -8   3  123.39   16.50
  -5   8   3  111.49    6.80
  -5   8  -3  117.89   13.60
   5  -8   3  126.99   11.50
   5   8  -3  120.39   17.10
  -5   8   3  134.49   14.50
   5  -8  -3  121.29    9.80
  -5   8  -3  114.19    8.00
   6  -8  -3   31.20   12.30
  -6  -8  -3   31.60   20.70
  -6  -8   3   32.50   15.30
  -6   8   3   48.80   14.30
   6  -8   3   26.40   11.90
   6   8  -3   35.60   15.60
  -6   8  -3   37.30   13.90
  -6   8   3   34.10    8.30
  -6   8  -3   31.80    7.90
  -7  -8   3   35.50   16.80
   7  -8   3   44.20   13.00
  -7  -8  -3   38.30   20.10
  -7   8   3   33.90   12.30
   7   8  -3   41.40   16.50
  -7   8   3   33.60    8.80
  -7   8  -3   32.60    7.10
  -8   8  -3   86.99   10.00
  -8   8  -3  155.48   13.30
  -8  -8   3  112.79   18.50
  -8   8   3  103.59    8.70
   8   8  -3  127.29   18.20
  -8  -8  -3  135.99   23.00
   9  -8   3   13.70   14.80
  -9   8  -3    7.20   14.10
   9  -8  -3    4.00   14.50
  -9   8   3   -2.00   10.70
  -9  -8   3    1.50   17.80
  -9   8  -3   -0.20   10.90
  -9  -8  -3   -0.40   22.20
  -1   9   3   98.09    9.00
   1  -9  -3   87.79   11.50
  -1  -9  -3   93.59   10.80
  -1   9   3   92.49   18.00
   1   9  -3   87.39   17.90
   1  -9   3   87.49    9.10
  -1  -9   3   90.29   10.90
   1   9  -3   89.89   14.20
  -1   9  -3   92.19   13.80
  -1   9  -3   83.79    7.40
   1  -9  -3   91.59    8.70
   2   9  -3    6.50   21.10
   2   9  -3    8.40   20.80
  -2  -9  -3    7.90    9.20
  -2   9  -3    9.60   14.50
  -2   9  -3   12.50    6.60
   2  -9  -3   10.80    8.90
  -2   9   3    9.30    8.40
  -2   9   3    7.30   14.70
  -2  -9   3    6.90   11.10
  -3  -9   3  880.41   12.50
  -3   9  -3  797.12   10.30
  -3   9  -3  796.02   16.00
  -3  -9  -3  835.62   12.50
   3  -9  -3  788.42   12.60
  -3   9   3  747.43   16.80
  -3   9   3  802.22    9.30
   3  -9   3  784.72   12.50
  -4  -9  -3  254.17   12.10
   4  -9   3  228.38    9.00
  -4  -9   3  251.57   10.00
  -4   9   3  230.28    7.40
  -4   9  -3  223.78    8.40
  -4   9   3  211.88   15.00
   4  -9  -3  233.78   10.70
  -4   9  -3  238.38   13.90
  -5  -9   3  220.78   11.20
   5  -9   3  201.88   11.10
  -5   9  -3  195.38    8.20
  -5  -9  -3  227.18   11.50
  -5   9   3  193.58    7.20
  -5   9  -3  199.68   12.20
  -5   9   3  188.98   14.70
   5  -9  -3  192.88   11.60
   5   9  -3  201.38   26.20
  -6   9   3   13.30    6.70
   6   9  -3   13.70   18.80
  -6  -9   3   15.10   19.00
  -6   9   3   24.40   14.70
  -6   9  -3   21.40    8.20
   6  -9   3   14.50   12.00
   7  -9   3  371.46   12.10
  -7  -9   3  336.47   22.70
  -7   9   3  321.07   10.10
  -7   9  -3  334.27    8.60
  -7   9   3  359.06   17.00
  -8   9   3  124.29   14.00
  -8  -9   3  124.29   23.30
  -8   9   3   99.39    8.60
  -8   9  -3   80.69   10.30
  -9   9  -3   88.29   18.90
   9  -9   3   69.89   15.40
  -9  -9   3   65.89   26.80
  -9   9  -3    1.60    9.90
  -9   9   3   39.60   12.00
   9  -9  -3   80.39   18.20
  -9   9   3   93.49   15.70
   0  10   3  249.48   10.50
   0 -10  -3  224.98   12.80
   0 -10   3  210.28   10.30
   0  10  -3  231.38   15.70
   0  10   3  248.08   17.90
   0  10  -3  237.98   10.20
   0 -10  -3  219.98    9.80
  -1 -10  -3   66.79   10.60
   1  10  -3   69.99   14.60
  -1  10   3   71.69    9.00
   1 -10  -3   71.39   10.90
  -1  10   3   71.29   16.40
   1  10  -3   73.69   16.70
   1 -10   3   62.99    7.20
  -1  10  -3   72.29   13.50
   1 -10  -3   68.89    8.60
  -1  10  -3   69.19    8.70
  -1 -10   3   52.59   10.40
  -2 -10   3  580.14   12.80
   2 -10  -3  565.54   11.90
  -2  10  -3  557.64    9.90
  -2  10   3  586.44   10.20
  -2  10   3  554.44   17.20
  -2 -10  -3  565.14   12.80
  -2  10  -3  580.84   15.90
   3 -10   3   48.30    9.80
  -3  10  -3   44.10   13.70
  -3  10  -3   51.39    8.30
  -3 -10  -3   34.00   11.50
  -3 -10   3   44.00    9.30
  -3  10   3   44.40   15.00
   3 -10  -3   43.50   10.00
  -3  10   3   41.20    6.80
  -4  10   3  112.69    8.70
   4 -10   3  106.19   10.40
   4 -10  -3  119.29   10.60
  -4  10   3   98.69   14.90
  -4  10  -3  124.49   13.90
  -4 -10  -3  117.19   11.60
  -4 -10   3  119.09   11.00
  -4  10  -3  105.69    7.00
   5 -10  -3   10.90    8.70
  -5  10  -3    5.00    8.10
  -5 -10   3    6.30    8.80
  -5  10  -3    9.80   14.40
  -5  10   3    8.80   14.60
  -5  10   3    9.60    6.60
  -5 -10  -3    6.90   10.80
   5 -10   3   10.50   11.00
  -6 -10   3    7.10   10.70
   6 -10   3    0.90   11.80
  -6 -10  -3    7.10    9.20
  -6  10   3    7.70    8.40
  -6  10   3    4.70   15.60
  -6  10  -3    4.70    7.00
   6 -10  -3   18.00   10.10
  -7 -10  -3   -0.50    9.70
  -7  10  -3    3.50   12.70
  -7 -10   3    0.30   11.40
  -7  10   3   -8.70    9.40
  -7  10  -3    3.30    7.70
   8 -10  -3   12.30   12.70
  -8  10   3   21.60   14.80
   8 -10   3   10.80   12.60
  -8  10  -3   13.10   10.50
  -8 -10   3   14.80   10.60
  -8  10   3   15.90    8.80
  -1  11  -3  963.70   19.10
   1  11  -3  990.50   25.40
   1 -11  -3  917.71   15.40
   1  11  -3  966.70   23.00
  -1  11   3  966.70   11.00
  -1 -11   3  885.61   12.10
  -1  11  -3  957.30   12.00
  -1  11   3  931.11   21.10
   1 -11   3  901.31   12.10
  -1 -11  -3  904.11   13.40
   1 -11  -3  934.61   11.80
  -2  11  -3  136.19   13.40
  -2  11   3  134.89   16.20
   2 -11  -3  115.89    9.90
  -2 -11  -3  126.99    9.80
  -2 -11   3  120.79   12.10
  -2  11   3  121.59    9.10
  -2  11  -3  122.99    7.60
  -3  11  -3   72.69   13.90
  -3  11   3   75.09    7.00
  -3 -11  -3   74.79    9.40
  -3  11  -3   69.09    8.60
  -3  11   3   74.19   15.30
   3 -11  -3   77.89    9.80
  -3 -11   3   82.69   11.40
   4 -11   3   -0.30   10.50
  -4  11  -3   -1.90    6.90
   4 -11  -3    2.00    8.80
  -4  11  -3   10.00   14.90
  -4  11   3   14.50   15.50
  -4 -11  -3    3.00   11.60
  -4  11   3    4.10    8.60
  -4 -11   3    7.60   10.90
  -5  11   3  758.02   11.10
  -5 -11   3  799.22   11.70
  -5 -11  -3  797.72   13.60
   5 -11   3  724.23   13.70
  -5  11   3  720.93   15.40
  -5  11  -3  708.93    9.70
  -5  11  -3  797.82   17.50
  -6  11  -3  159.88   14.10
  -6  11  -3  163.18    8.20
  -6  11   3  160.28    9.70
  -6  11   3  180.68   16.60
  -6 -11   3  179.48   11.40
  -6 -11  -3  163.38   10.10
   6 -11   3  157.98   12.70
  -7 -11  -3    9.60    9.90
  -7  11   3   11.80    9.90
  -7 -11   3   15.40   11.70
  -7  11  -3   14.00    7.90
  -8  11   3   -5.00   10.80
   8 -11  -3    3.30   12.90
  -8  11  -3  -12.50   11.00
  -8 -11   3    1.90   12.40
  -8  11   3    6.20   15.20
  -8 -11  -3    0.60   13.10
   0 -12  -3  331.47   10.90
   0  12   3  368.96   18.30
   0  12  -3  367.36   18.60
   0 -12   3  327.47   11.10
   0  12   3  382.96   11.50
   0  12  -3  369.16   11.40
   1 -12  -3   27.30   11.30
   1 -12  -3   31.00    9.10
  -1  12  -3   30.20    7.80
   1  12  -3   31.20   18.60
  -1  12   3   35.80   15.10
  -1  12   3   38.40    9.40
  -1 -12   3   26.90   10.60
  -1  12  -3   23.20   12.40
   1 -12   3   29.20    9.30
  -1 -12  -3   28.30    8.60
   1  12  -3   30.40   16.60
  -2  12  -3  103.39    9.10
  -2 -12   3  100.79   11.40
  -2  12  -3   99.69   14.10
   2 -12  -3   88.79   10.10
  -2 -12  -3  105.09   11.60
  -2  12   3   99.59   14.40
  -2  12   3  110.19    7.70
  -3  12  -3    6.80   13.90
  -3 -12  -3   12.50    9.20
  -3  12  -3   19.00    7.30
  -3  12   3   17.90    9.10
  -3 -12   3   25.60   11.70
   3 -12  -3   18.70    9.60
  -3  12   3   28.00   16.50
  -4  12   3   23.20    7.20
  -4  12   3   29.10   15.70
  -4 -12   3   31.40    9.10
   4 -12  -3   36.50   10.40
  -4 -12  -3   37.60   12.00
  -4  12  -3   28.10    8.80
  -4  12  -3   32.60   12.50
  -5  12   3    0.70    7.50
  -5 -12   3    3.10    8.90
  -5 -12  -3   -2.10   11.60
  -5  12   3   14.70   16.20
  -5  12  -3   -1.10    9.10
  -6  12   3    8.50   14.90
  -6  12  -3   21.10    7.70
  -6  12   3   12.70    9.80
   6 -12  -3    4.40   10.10
  -6 -12   3   11.40    9.20
  -6 -12  -3   17.10   11.70
  -7  12   3    0.50   10.90
  -7 -12  -3    0.60   10.50
  -7  12  -3    1.60   14.90
  -7 -12   3    8.00   12.10
  -7  12  -3    0.80    8.80
  -8 -12   3    0.30   13.10
  -8 -12  -3    2.90   11.00
  -8  12   3    4.80   12.00
  -8  12  -3   -0.30    9.50
  -8  12  -3   -4.60   20.50
  -8  12   3   -3.60   16.60
   8 -12  -3   -1.70   12.80
  -1  13  -3  164.28   15.50
  -1  13  -3  180.68   10.10
   1 -13   3  157.68    8.50
  -1 -13   3  169.68   11.10
   1  13  -3  161.88   22.20
  -1  13   3  176.08    8.80
  -1 -13  -3  143.99   11.20
  -1  13   3  163.58   16.80
   1 -13  -3  159.08   10.00
   1  13  -3  162.38   22.00
  -2  13   3    7.30   15.50
  -2  13  -3   11.80   14.70
  -2  13   3    8.20    7.70
  -2  13  -3   16.70    9.10
  -2 -13   3   19.30   11.20
  -2 -13  -3   14.20   11.20
   2 -13  -3    9.30   11.10
   3 -13  -3  223.08   11.20
  -3  13  -3  237.98    9.80
  -3  13   3  224.08    9.80
  -3 -13   3  231.88   12.20
  -3  13  -3  222.18   15.10
  -3  13   3  225.08   15.90
  -3 -13  -3  225.58   10.40
  -4  13  -3   68.79    9.50
  -4  13   3   59.79    9.60
  -4 -13  -3   67.59   12.20
  -4  13   3   56.69   16.60
  -4  13  -3   59.79   15.90
  -4 -13   3   59.69   11.30
  -5 -13   3    7.40   11.40
  -5  13  -3    4.70   13.20
  -5  13   3    3.80    7.80
  -5  13   3   10.90   18.00
  -5 -13  -3    1.70   11.70
  -5  13  -3   -0.40    9.40
  -6 -13   3    3.80    9.60
  -6  13  -3   19.90   10.10
  -6  13   3   11.00   18.10
  -6 -13  -3    6.80   12.20
  -6  13   3    6.00    8.40
   7 -13  -3   61.79   14.20
  -7 -13  -3   28.40   13.00
  -7  13   3   38.70    9.90
  -7 -13   3   49.60   10.50
  -7  13  -3   45.90   11.40
   0  14  -3    6.30   15.70
   0 -14  -3   11.60    8.40
   0 -14   3   12.70   10.50
   0  14  -3    5.60   15.60
   0  14   3    2.40   21.00
  -1 -14   3   25.70    9.20
   1 -14  -3   16.50    9.70
  -1  14  -3    9.40   10.00
  -1  14   3   26.70   17.90
  -1 -14  -3   11.40   10.90
  -1  14   3   20.90    8.40
  -1  14  -3   15.40   14.40
   1 -14   3   20.70    8.40
   2 -14  -3   23.60   11.80
  -2  14  -3   25.30   15.30
  -2  14  -3   11.90    7.90
  -2 -14   3   11.60   11.60
  -2 -14  -3   18.00    9.60
  -2  14   3   19.50   10.00
  -2  14   3   23.80   14.00
  -3  14   3   10.00   17.00
  -3  14   3    6.20    8.00
   3 -14  -3    6.90   12.40
  -3  14  -3   15.10   14.30
  -3 -14  -3    9.80   12.00
  -3 -14   3    5.30    9.60
  -3  14  -3    5.20    9.70
  -4  14   3   12.10   15.80
  -4 -14  -3    3.00   12.30
  -4  14   3    6.00    8.00
  -4  14  -3   14.90   15.10
  -4 -14   3    0.70    9.40
  -4  14  -3    3.80    9.60
   4 -14  -3    2.90   11.30
   5 -14  -3   20.00    9.80
  -5  14  -3   12.70    8.40
  -5 -14   3   13.90   11.70
  -5  14   3   10.80   17.60
  -5  14   3   26.60   10.40
  -5 -14  -3    2.00    9.90
  -6 -14   3   20.70   12.40
   6 -14  -3   10.90   13.30
  -6 -14  -3    5.40   10.20
  -6  14  -3   13.70    8.80
  -6  14   3    8.60   11.30
  -6  14  -3   13.60   18.80
   7 -14  -3    7.90   12.40
  -7  14   3    9.80   17.20
  -7 -14  -3   11.60   10.90
  -7 -14   3   11.60   13.00
  -7  14   3    5.40   12.60
  -7  14  -3    9.60   12.20
  -1 -15  -3   -1.70    9.20
  -1  15   3    1.00   10.60
  -1  15  -3    4.10   14.80
  -1 -15   3    0.40   11.40
   1 -15   3   -3.40   10.60
  -1  15  -3    5.60    8.50
  -1  15   3    1.70   16.90
   1 -15  -3    3.30    8.30
  -2  15  -3    9.20   15.80
  -2  15  -3   17.50    8.50
  -2  15   3   10.80   10.60
  -2 -15  -3   14.40    9.60
  -2 -15   3    5.40   12.00
  -2  15   3   15.20   16.00
  -3 -15  -3    1.70   12.10
  -3 -15   3    8.00    9.60
  -3  15  -3    1.20   10.30
   3 -15  -3   -3.20   11.20
  -3  15  -3    5.60   14.20
  -3  15   3   16.00   17.30
  -3  15   3    9.60    8.30
  -4  15   3   11.20   10.70
  -4  15   3   29.30   16.20
  -4  15  -3   11.00    8.70
  -4 -15   3   20.00   12.10
  -4  15  -3   23.60   15.40
   4 -15  -3   10.10   11.80
  -4 -15  -3   13.40   10.30
  -5 -15   3    7.90   10.10
   5 -15  -3   -5.10   12.50
  -5  15  -3   24.30   11.00
  -5  15   3    3.80    9.30
  -5 -15  -3   -3.30   13.00
  -6  15   3   -1.90    9.60
  -6 -15   3    8.30   10.10
  -6  15  -3   12.90   20.30
  -6 -15  -3    7.40   13.00
  -6  15  -3    1.50   11.90
   6 -15  -3    4.50   13.90
   0  16  -3   82.69   21.90
   0 -16   3   80.69    9.60
   0 -16  -3   74.99   11.50
   0  16  -3   92.19   20.90
  -1  16  -3    7.80   16.80
  -1  16   3    8.80   17.90
  -1  16  -3    3.00   11.50
  -1 -16   3   16.90    9.90
  -1  16   3    7.00    9.30
  -1 -16  -3    0.10   12.10
  -2 -16  -3   -1.40   12.30
  -2  16   3    4.10    8.70
  -2 -16   3    2.50    9.80
  -2  16  -3   16.80   11.30
  -2  16   3    6.60   16.70
  -2  16  -3    1.80   16.30
  -3 -16   3   10.60   10.10
  -3  16  -3    0.70   15.40
  -3  16   3    5.00   15.60
  -3  16  -3   23.20   10.70
  -3 -16  -3    4.40   12.60
  -3  16   3    7.30    9.30
  -4  16  -3   16.20   11.20
  -4  16  -3    5.20   16.50
  -4 -16  -3    7.10   13.40
  -4 -16   3   11.10   12.70
  -4  16   3    9.30   11.60
  -5  16  -3   25.00    9.90
  -5 -16  -3   26.40   13.50
   5 -16  -3   26.20   13.50
  -5 -16   3   15.80   10.50
  -5  16   3   30.20   18.50
  -5  16  -3   25.60   17.90
  -5  16   3   18.90   12.20
  -1 -17  -3   -3.70   12.90
  -1  17  -3   12.60   18.10
  -1  17  -3   10.80   18.00
  -1 -17   3    2.70   10.60
  -1  17   3   14.70   24.40
  -2 -17  -3    4.00   12.80
  -2 -17   3   11.00   12.70
  -2  17   3    7.20   20.30
  -2  17   3   10.00   12.30
  -2  17  -3    2.20   16.60
  -2  17  -3   14.80   12.00
  -3 -17  -3   11.40   13.70
  -3 -17   3   46.90   10.90
  -3  17  -3   37.90   12.30
  -3  17   3   21.60   18.70
  -3  17  -3   36.70   16.10
  -3  17   3   26.20   10.40
  -4  17   3    0.80   10.20
  -4  17  -3    7.00   12.40
  -4 -17  -3   18.30   14.00
  -4 -17   3   13.40   11.20
  -4  17  -3   10.70   17.10
   0 -18   3   12.70   10.80
   0 -18  -3    9.90   13.10
  -1  18  -3   22.50   22.70
  -1 -18  -3    2.80   11.10
  -1 -18   3   22.60   13.70
  -1  18  -3   12.60   21.40
  -2  18   3  143.69   14.10
  -2  18  -3  198.18   11.80
  -2 -18   3  126.89   14.20
  -2  18   3  206.88   22.50
  -2 -18  -3  178.78   12.30
  -2  18  -3  171.28   18.40
  -3  18   3   16.30   11.10
  -3 -18  -3   40.30   14.20
  -3  18  -3   41.30   13.50
  -3 -18   3   34.80   14.40
  -3  18  -3   35.50   18.70
  -3  18   3   42.90   20.60
   0   0  -4 3512.65   40.20
   0   0   4 3454.35   39.30
   1   0  -4  190.08   23.40
  -1   0   4  183.18   21.60
  -2   0   4  700.53   20.20
  -2   0  -4  716.63   16.90
   2   0  -4  675.73   19.70
  -3   0  -4  413.86   11.40
  -3   0   4  421.86   14.50
   3   0  -4  393.06   15.10
   3   0   4  380.86   14.10
  -4   0   4  305.87   11.20
   4   0  -4  303.97   14.10
  -4   0  -4  322.07   10.50
   4   0   4  296.77   13.40
   5   0   4   10.90   12.40
  -5   0   4    5.60    8.60
   5   0  -4    5.60   15.90
  -5   0  -4   10.00   10.10
  -6   0   4   77.79    9.40
   6   0  -4   88.49   16.40
   6   0   4   72.69   11.30
  -6   0  -4   92.59    8.90
   7   0   4    2.90   15.30
  -7   0   4    3.00   12.10
   7   0  -4   11.30   16.90
  -7   0  -4    7.20    9.80
   8   0   4  189.98   16.40
  -8   0   4  216.68   13.80
  -9   0  -4   29.20   13.10
   9   0  -4   22.60   13.20
 -10   0  -4   11.50   15.70
 -10   0   4   17.00   16.00
  10   0  -4   18.90   17.30
   1   1  -4   73.69   16.10
   1  -1  -4   79.09   20.20
  -1   1   4   79.29   16.90
  -1  -1   4   83.29   19.00
  -2   1   4  794.32   16.50
  -2  -1  -4  818.52   18.00
  -2  -1   4  844.92   21.80
  -2   1  -4  820.52   16.20
   2   1  -4  827.12   25.00
   2  -1  -4  782.62   18.90
   3   1  -4 1066.09   22.20
   3  -1  -4 1017.00   19.80
   3  -1   4 1001.00   15.10
  -3   1   4 1049.00   16.50
  -3  -1  -4 1101.99   16.50
   3   1   4  999.20   17.80
  -3  -1   4 1060.19   17.80
  -3   1  -4 1085.19   15.80
  -4   1  -4 1068.09   15.20
   4  -1  -4  966.10   16.90
  -4  -1  -4 1047.10   15.40
  -4  -1   4 1014.80   15.90
   4   1   4  950.60   17.30
   4   1  -4 1032.10   20.90
  -4   1   4 1038.00   16.30
   4  -1   4  951.00   16.30
  -5   1   4   61.29   11.40
  -5  -1   4   52.19    8.90
   5   1  -4   59.29   16.10
  -5   1  -4   60.09   10.30
  -5  -1  -4   68.09   10.00
   5   1   4   50.19   12.50
   5  -1   4   56.99   12.90
   5  -1  -4   53.09   14.70
   6  -1   4  617.04   15.50
  -6   1   4  714.83   12.40
   6   1   4  646.24   15.90
  -6   1  -4  720.63   11.80
  -6  -1  -4  710.13   13.40
  -6  -1   4  683.13   13.70
   6   1  -4  716.03   18.50
   6  -1  -4  730.53   18.60
  -7  -1   4  531.25   13.30
   7   1  -4  541.85   17.30
   7  -1  -4  551.64   18.70
   7   1   4  503.35   14.90
   7  -1   4  484.35   14.20
  -7  -1  -4  554.04   13.50
  -7   1   4  538.95   11.90
  -8   1   4  380.86   13.80
  -8  -1   4  402.46   14.10
   8   1  -4  367.96   14.00
   8  -1  -4  380.16   14.90
   8   1   4  364.46   15.40
   8  -1   4  364.76   18.00
  -9  -1  -4   69.29   14.00
   9  -1   4   62.09   17.70
 -10  -1  -4  107.69   16.60
  10  -1  -4  105.59   15.50
 -10  -1   4  103.49   16.40
 -10   1   4  105.29   14.00
 -10   1  -4  114.19   15.90
  10   1  -4   97.99   16.50
   0   2  -4  781.82   18.70
   0  -2  -4  882.81   21.70
   0   2  -4  870.01   22.70
   0   2   4  771.42   26.10
   0  -2  -4  869.51   27.90
   0  -2   4  865.51   21.40
   0   2   4  867.01   23.60
  -1   2   4  564.54   20.00
  -1  -2   4  568.74   21.10
  -1   2   4  563.64   13.50
   1  -2  -4  554.64   19.80
   1   2  -4  550.44   21.70
  -1   2  -4  543.25   14.60
  -1  -2  -4  540.45   23.60
  -2   2   4 1620.64   22.10
   2  -2  -4 1574.94   21.10
  -2  -2  -4 1688.43   23.70
   2   2  -4 1611.94   27.70
  -2   2  -4 1642.14   18.80
  -2  -2   4 1667.13   25.00
   2  -2   4 1576.04   17.70
  -3   2   4    6.00   13.10
  -3  -2  -4    4.60   10.20
   3  -2   4   -2.40   10.90
   3   2  -4    6.40   16.00
  -3   2  -4    0.10    9.00
  -3  -2   4    7.20   12.30
   3  -2  -4    6.30   13.30
  -4   2   4   68.79   12.10
   4  -2  -4   67.49   11.10
  -4   2  -4   73.59   11.50
  -4  -2   4   63.29   11.80
  -4  -2  -4   71.09   10.30
   4   2  -4   71.89   17.00
   4   2   4   67.59   14.10
   4  -2   4   66.29   12.60
   5   2  -4   24.10   15.20
  -5  -2  -4   19.70   10.00
  -5   2  -4   19.00   11.10
  -5   2   4   18.20   12.00
   5  -2  -4   22.10   11.60
   5  -2   4   11.90   10.40
   5   2   4   22.50   12.80
  -5  -2   4   17.80   10.60
   6   2   4   32.50   13.50
  -6   2  -4   38.80   10.80
  -6  -2   4   35.30   11.00
   6  -2  -4   18.00   15.10
   6  -2   4   30.50   10.60
  -6   2   4   37.80   11.80
  -6  -2  -4   38.20   10.20
   6   2  -4   30.20   14.60
   7   2   4    1.60   13.40
  -7   2  -4   11.20    9.10
  -7   2   4    3.10   12.20
   7  -2  -4    0.10   15.90
   7   2  -4    7.20   13.60
   7  -2   4   -2.00   14.20
  -7  -2   4   10.00   11.10
  -7  -2  -4    7.20   10.50
  -8   2   4   14.80   10.80
   8  -2   4   19.30   13.20
   8   2  -4   19.50   14.00
  -8  -2  -4   12.90   11.90
  -9  -2   4   16.90   11.40
  -9   2   4    5.30   11.80
  -9  -2  -4    9.90   13.40
   9  -2  -4   26.10   14.90
  10   2  -4  153.48   16.90
  10  -2  -4  181.68   16.50
 -10  -2   4  182.58   17.20
 -10  -2  -4  177.38   16.50
 -10   2  -4  201.08   16.90
  -1   3  -4 2953.00   26.00
   1  -3  -4 2929.91   30.20
  -1   3   4 3033.90   37.00
  -1  -3   4 2989.90   35.70
  -1  -3  -4 3004.70   41.60
  -1  -3   4 3006.00   31.70
   1   3  -4 2875.11   34.30
  -1   3   4 3074.89   23.00
  -1   3  -4 3042.80   22.20
  -2   3   4   66.39   14.90
  -2  -3  -4   67.59   13.70
   2  -3  -4   68.19   12.90
   2   3  -4   64.79   15.90
  -2   3  -4   63.49    9.30
  -2  -3   4   65.29   16.40
   2  -3   4   64.69   11.30
   3  -3  -4  250.47   12.30
  -3  -3   4  250.67   13.30
  -3   3   4  262.57   15.00
  -3  -3  -4  270.07   13.60
   3  -3   4  257.97   13.30
  -3   3  -4  245.98   11.00
   3   3  -4  255.87   18.40
   4  -3   4  572.04   13.70
  -4  -3  -4  588.84   13.30
  -4   3   4  570.74   14.30
  -4  -3   4  566.14   16.40
   4  -3  -4  531.15   12.90
   4   3  -4  587.24   18.40
  -4   3  -4  580.44   11.50
   5   3  -4 1357.36   20.00
   5  -3   4 1280.97   15.20
  -5  -3   4 1330.87   16.80
   5   3   4 1259.87   19.40
  -5  -3  -4 1356.06   16.50
  -5   3   4 1353.46   16.80
   5  -3  -4 1304.17   18.30
  -5   3  -4 1408.06   15.90
   6  -3   4  828.32   14.10
  -6  -3  -4  898.11   14.90
   6  -3  -4  886.61   17.90
  -6   3  -4  915.81   12.80
   6   3  -4  881.41   16.70
  -6   3   4  899.21   13.20
  -6  -3   4  873.91   14.20
   6   3   4  829.12   16.30
  -7   3   4   65.79   13.10
   7   3  -4   71.39   12.80
  -7  -3   4   68.19   11.50
  -7  -3  -4   62.59   10.70
   7  -3  -4   62.59   13.00
   7  -3   4   63.29   14.70
  -7   3  -4   63.09   12.00
  -8   3   4  365.66   12.20
  -8  -3   4  402.26   14.40
   8  -3  -4  361.06   15.40
   8   3  -4  347.97   14.80
  -8  -3  -4  386.96   13.80
   8  -3   4  332.77   15.30
  -9  -3  -4  186.58   14.90
  -9   3   4  189.28   13.10
  -9  -3   4  167.88   16.60
  -9   3  -4  169.78   14.80
  10   3  -4   49.60   18.20
  10  -3  -4   54.29   16.00
 -10  -3   4   53.99   15.90
 -10  -3  -4   66.99   18.30
 -10   3  -4   59.99   14.20
   0  -4  -4 2557.84   31.00
   0  -4  -4 2706.73   23.40
   0  -4   4 2684.33   23.50
   0   4  -4 2736.63   24.20
   0   4   4 2598.34   37.40
   0   4   4 2805.32   25.20
   1   4  -4    6.30   13.10
  -1  -4  -4    4.80   13.10
  -1   4  -4    8.20   12.30
  -1  -4  -4    4.70   21.00
  -1   4  -4    5.00    8.50
  -1  -4   4    8.60   13.20
   1  -4  -4    6.00    7.00
   1  -4  -4    5.70   13.20
  -1   4   4    2.80   18.90
  -1   4   4    7.80    9.00
   2  -4   4   30.30   10.90
  -2  -4   4   30.30   15.80
  -2   4   4   29.80   12.20
   2   4  -4   26.70   16.50
  -2  -4  -4   28.50   14.70
  -2   4   4   27.10    7.50
   2  -4  -4   31.00   10.00
  -2   4  -4   26.00   11.30
  -2  -4  -4   28.90   19.10
  -2   4  -4   24.00    7.30
   3  -4   4  214.78   12.20
  -3  -4  -4  223.88   12.60
   3  -4  -4  221.18   13.60
  -3   4  -4  232.18   12.70
   3   4  -4  213.48   17.80
  -3   4   4  232.28   14.70
  -3  -4   4  220.88   13.40
   4  -4   4  377.16   12.30
   4  -4  -4  386.06   13.50
  -4   4   4  376.16   11.80
   4   4  -4  365.36   17.80
  -4   4  -4  366.46   12.30
  -4  -4   4  368.56   14.80
  -4  -4  -4  384.26   13.80
   5  -4   4   45.10   11.70
  -5  -4   4   40.80   13.10
   5  -4  -4   48.80   13.40
  -5  -4  -4   43.20   10.00
  -5   4   4   40.30   12.70
  -5   4  -4   53.89   11.50
   5   4  -4   35.10   13.40
   6  -4   4   -1.00   10.90
  -6  -4  -4   -0.10   11.10
   6   4  -4    2.40   12.40
   6  -4  -4   21.90   14.40
  -6  -4   4    4.70   10.60
  -6   4  -4   10.20    9.80
  -6   4   4    5.90   12.70
   7  -4   4    8.20   11.90
  -7   4  -4    3.20   12.30
  -7   4   4   15.70   12.80
   7   4  -4    0.10   12.50
  -7  -4   4    2.70   13.20
  -7  -4  -4    5.40   11.00
   8  -4   4   18.70   13.20
  -8  -4  -4    7.10   12.00
  -8  -4   4   14.80   12.50
   8   4  -4   18.40   13.20
  -9  -4   4   23.90   14.10
   9   4  -4   15.40   14.10
   9  -4  -4   25.10   15.60
  -9  -4  -4   20.50   15.70
  10  -4  -4   40.10   21.30
 -10  -4  -4   58.59   16.20
  10   4  -4   42.00   15.20
 -10  -4   4   39.70   16.60
 -10   4  -4   75.09   16.90
  -1   5  -4  167.18   12.90
   1  -5  -4  175.18   12.30
   1   5  -4  161.48   15.10
  -1  -5   4  165.78   12.40
  -1  -5  -4  164.18   12.40
   1  -5   4  174.38    7.80
  -1  -5  -4  169.48   19.40
  -1   5   4  177.48    8.00
  -1   5  -4  177.58    9.10
   1   5   4  166.18   19.30
   1  -5  -4  180.58    9.00
  -1   5   4  178.48   18.60
   2  -5   4  308.47   12.20
  -2  -5  -4  332.57   26.80
  -2   5   4  316.47    9.10
  -2  -5  -4  329.27   19.70
   2   5  -4  321.57   17.70
  -2   5  -4  306.47    9.00
  -2  -5   4  327.77   16.80
  -2   5  -4  306.57   13.40
   2  -5  -4  308.37   11.30
  -2   5   4  304.67   14.40
   3  -5  -4 1059.19   16.00
  -3  -5  -4 1065.79   22.90
  -3   5   4 1018.00   10.30
   3  -5   4 1042.90   14.80
  -3   5   4 1035.70   18.40
  -3   5  -4 1031.20   14.50
   3   5  -4 1056.69   23.10
  -3  -5   4 1043.40   21.10
  -3   5  -4 1002.40    9.90
  -4   5  -4  692.53   13.90
   4  -5  -4  677.83   12.90
  -4  -5  -4  699.63   16.80
   4   5  -4  710.23   19.40
  -4  -5   4  692.93   16.50
   4  -5   4  693.93   13.60
  -4   5   4  703.13   15.80
  -5   5   4    6.10   10.00
   5  -5   4    0.80    9.30
  -5  -5   4    3.60   12.10
   5  -5  -4    0.20   12.00
  -5  -5  -4    8.40   12.40
  -5   5  -4    4.10   11.50
   5   5  -4   10.00   13.90
   6   5  -4  331.27   15.30
  -6  -5  -4  316.77   13.50
   6  -5  -4  338.07   14.30
   6  -5   4  311.67   11.40
  -6   5  -4  334.97   12.90
  -6   5   4  322.27   11.70
  -6  -5   4  333.57   12.60
  -7  -5  -4  208.68   14.20
   7   5  -4  213.38   14.10
   7  -5   4  203.28   14.90
  -7  -5   4  225.38   14.80
  -7   5   4  223.68   11.50
  -8  -5  -4  270.97   15.40
   8  -5   4  253.17   17.20
   8   5  -4  255.37   13.70
  -8  -5   4  263.97   15.60
  -8   5   4  272.97   12.60
  -9  -5  -4   49.10   16.40
   9   5  -4   39.10   16.20
  -9  -5   4   51.99   16.20
   9  -5  -4   42.10   15.60
   9  -5   4   47.20   15.60
 -10   5  -4    9.30   15.20
  10   5  -4   12.20   17.50
 -10  -5   4   24.60   18.40
   0   6   4  121.79    9.00
   0  -6  -4  108.89    9.90
   0   6  -4  116.59   10.30
   0  -6  -4  108.69   13.10
   0  -6   4  108.69   10.00
   0   6   4  111.79   19.50
   0   6  -4  113.19   12.10
  -1   6   4  359.26   22.40
  -1  -6  -4  336.07   11.20
  -1  -6   4  339.67   12.90
   1  -6  -4  357.76   14.10
   1  -6  -4  360.16    8.70
   1  -6   4  366.76    8.70
  -1  -6  -4  357.36   20.70
   1   6   4  348.77   21.20
  -1   6  -4  372.06    8.80
  -1   6   4  379.56   10.40
  -1   6  -4  353.86   12.40
   1   6  -4  342.77   15.10
  -2   6  -4  582.44   14.60
   2   6  -4  586.34   19.10
  -2  -6  -4  581.74   15.20
   2  -6  -4  586.94   13.60
  -2  -6   4  613.34   14.80
  -2   6  -4  585.64    9.90
  -2   6   4  548.65   18.10
  -2   6   4  589.44    9.10
   3  -6  -4  106.99    9.40
   3  -6   4  101.19   10.80
  -3   6  -4  102.09   10.30
   3   6  -4   99.19   17.80
  -3   6   4   98.79    7.50
  -3  -6   4  100.69   15.90
  -3   6   4   92.39   14.30
  -3   6  -4  100.49    7.60
  -3  -6  -4  104.49   25.40
  -3  -6  -4   97.39   21.00
   4  -6   4   20.90   10.60
   4   6  -4   26.60   14.40
   4  -6  -4   25.80   11.50
  -4  -6   4   18.60   13.90
  -4   6  -4   23.40    9.70
  -4   6   4   15.00    7.40
  -4  -6  -4   19.30   13.80
  -4   6   4   31.30   13.30
  -4   6  -4   19.80    7.10
  -5  -6   4   20.20   13.00
   5  -6   4   26.60    9.00
   5   6  -4   23.40   13.60
  -5  -6  -4   19.70   13.70
   5  -6  -4   36.80   11.70
  -5   6   4   14.90   10.60
  -5   6  -4   35.90   11.80
  -6  -6  -4  113.69   12.90
   6   6  -4  111.99   14.20
   6  -6   4  122.49   12.50
   6  -6  -4  111.79   10.60
  -6   6  -4  119.79   10.60
  -6  -6   4  112.19   13.40
  -6   6   4  108.19   13.20
   7   6  -4    7.00   14.20
   7  -6   4   15.10   11.10
  -7  -6   4   14.60   13.60
  -7  -6  -4   11.90   13.00
  -7   6   4   10.10   11.60
   7  -6  -4    3.80   11.70
  -7   6  -4    6.40   10.70
   8   6  -4   89.99   12.70
  -8  -6  -4   88.99   15.20
   8  -6  -4   86.19   13.10
   8  -6   4   79.19   13.20
  -8  -6   4   86.29   13.00
  -8   6   4   99.29   15.40
   9   6  -4    3.60   15.70
   9  -6  -4   14.50   15.00
  -9  -6  -4    5.80   16.20
  -9  -6   4    4.90   15.90
   1   7  -4  527.65   17.20
  -1   7   4  542.35   22.40
   1   7   4  519.15   25.70
  -1   7   4  550.24    9.60
  -1   7  -4  522.85    9.40
  -1  -7  -4  537.95   23.70
  -1  -7  -4  492.45   12.70
  -1   7  -4  522.35   15.40
   1   7  -4  548.05   19.30
   1  -7  -4  514.05   13.30
  -1  -7   4  495.35   11.30
   1  -7  -4  534.15    9.40
   1  -7   4  534.85    9.60
   2   7  -4  218.28   19.90
  -2   7  -4  213.18    7.30
  -2  -7  -4  214.68   10.80
  -2   7   4  203.18   16.40
  -2   7  -4  224.98   13.10
  -2  -7   4  206.78   10.50
  -2   7   4  225.68    7.60
   2  -7  -4  218.88   11.80
   3   7  -4  107.79   16.40
  -3   7  -4  112.59    6.60
  -3   7   4  100.29   13.90
  -3   7  -4  122.99   12.60
  -3   7   4  107.29    6.60
   3  -7  -4  109.19   10.80
  -3  -7  -4  106.49   10.00
   3  -7   4  110.99    8.40
  -3  -7   4  121.29    9.80
   4   7  -4  292.87   17.50
   4  -7  -4  297.27   12.20
  -4   7  -4  287.67   13.20
  -4  -7  -4  298.37   29.90
  -4  -7   4  294.37   16.70
  -4   7   4  272.47   15.20
   4  -7   4  266.97    9.60
  -4  -7  -4  287.07   30.40
  -4   7   4  276.47    8.60
  -4   7  -4  276.17    6.90
  -5   7  -4   63.19   13.00
  -5   7  -4   39.00    6.10
   5   7  -4   40.60   15.30
  -5  -7  -4   40.90   17.10
  -5   7   4   38.40    6.50
  -5  -7   4   34.90   14.00
   5  -7  -4   32.00   12.10
  -5   7   4   44.40   13.80
   5  -7   4   47.10   11.40
  -6   7  -4  256.17    7.40
  -6   7   4  257.27    8.80
   6  -7  -4  277.97   11.50
   6   7  -4  287.67   15.10
  -6   7  -4  283.17   11.60
  -6   7   4  260.37   12.50
   6  -7   4  257.17   13.10
  -6  -7  -4  264.97   17.40
  -6  -7   4  270.57   15.60
  -7   7  -4    7.80    6.90
   7   7  -4   14.80   14.80
  -7   7   4    1.50    8.50
  -7  -7  -4   12.80   15.50
  -7  -7   4   13.00   14.90
   7  -7   4    3.00   11.30
  -7   7   4    7.00   11.50
  -8   7  -4   84.99    8.00
   8   7  -4  116.79   15.00
  -8  -7   4  120.69   16.70
  -8  -7  -4  125.59   17.90
  -8   7   4   73.59    9.90
  -9   7   4   -6.00   11.20
  -9  -7  -4   12.70   19.20
   9  -7  -4   12.50   14.90
  -9   7  -4    1.30   16.60
   9   7  -4    6.40   17.30
  -9  -7   4   11.10   15.90
  -9   7  -4    9.50   10.80
   9  -7   4   18.50   15.00
   0   8  -4  133.49   14.50
   0  -8  -4  117.39    9.20
   0   8   4  139.39   17.80
   0  -8  -4  126.99   13.40
   0   8   4  127.19   10.20
   0   8  -4  127.99    9.70
   0  -8   4  118.99    9.90
   1   8  -4  722.83   17.40
   1  -8  -4  748.13   14.00
  -1   8  -4  745.13   17.50
   1   8   4  723.43   28.30
  -1   8   4  728.63   20.60
   1   8  -4  757.12   21.30
  -1  -8   4  674.83   11.80
  -1   8   4  741.53   11.40
  -1  -8  -4  704.23   11.70
   1  -8   4  740.43   10.20
   1  -8  -4  742.23    9.90
  -1   8  -4  759.82   11.30
  -1  -8  -4  734.83   25.90
   2  -8  -4  328.57   11.30
  -2  -8   4  344.77   12.70
  -2  -8  -4  331.67   12.90
  -2   8  -4  330.37   13.80
   2   8  -4  351.76   20.60
  -2   8   4  304.97   16.40
  -2   8   4  345.87    9.40
  -2   8  -4  327.47    9.20
   3  -8   4  311.57   10.90
  -3  -8  -4  320.97   11.10
  -3   8   4  293.17   15.20
  -3   8  -4  318.07   13.80
   3  -8  -4  315.97   11.30
  -3   8   4  301.07    7.60
  -3   8  -4  304.07    7.60
  -3  -8   4  335.87   10.90
   3   8  -4  305.17   19.60
   4   8  -4   62.89   17.60
  -4   8   4   52.79    6.30
  -4  -8  -4   63.79    9.30
  -4  -8   4   64.29    8.70
  -4   8  -4   65.99   12.60
   4  -8  -4   61.69   11.00
   4  -8   4   65.19   10.20
  -4   8  -4   51.59    6.10
  -4   8   4   53.89   11.80
   5  -8   4   40.40   10.90
   5  -8  -4   45.70   11.80
   5   8  -4   53.09   15.50
  -5   8  -4   43.70    6.30
  -5   8  -4   42.70   12.90
  -5  -8   4   45.70   14.80
  -5   8   4   41.70    7.90
  -5   8   4   50.89   12.10
  -6   8   4   43.70   14.20
  -6   8  -4   36.10   11.20
  -6   8   4   30.70    6.90
  -6  -8  -4   27.50   22.50
   6  -8  -4   28.00   10.10
  -6  -8  -4   32.50   22.30
   6   8  -4   28.20   14.60
  -6   8  -4   23.40    8.00
  -6  -8   4   30.00   14.10
   6  -8   4   39.30    9.90
   7   8  -4    3.20   15.20
  -7   8   4   -1.60    7.10
  -7  -8  -4    4.40   20.00
   7  -8   4    3.90   10.80
  -7   8   4   11.40   14.90
  -7   8  -4    5.10    8.60
  -7  -8   4    3.30   16.00
  -8  -8   4    6.00   16.10
   8   8  -4    5.10   16.10
  -8   8   4    1.90   12.90
  -8   8  -4    2.00   12.80
  -8  -8  -4    2.30   21.80
  -8   8   4   -5.60    9.40
  -8   8  -4    2.20    7.70
   9  -8  -4    2.50   18.20
  -9   8  -4  -11.30   10.90
  -9  -8  -4    7.20   23.00
  -9   8  -4   30.30   16.90
  -9  -8   4   15.70   18.30
  -9   8   4   19.70    9.40
   9   8  -4   13.30   18.20
   1   9  -4   18.10   13.40
   1   9  -4   23.70   15.10
   1   9   4   21.20   22.00
  -1   9  -4   20.10    8.70
   1  -9  -4   20.00    8.40
  -1   9  -4   19.80   12.60
  -1  -9  -4   15.30    8.60
  -1   9   4   20.10    7.30
  -1  -9   4   18.80    9.00
   1  -9  -4   18.10    9.70
   1  -9   4   18.90    7.30
  -1   9   4   27.70   17.30
  -2   9   4   47.90   17.50
  -2  -9  -4   28.30   11.50
   2  -9  -4   35.80    9.70
   2   9  -4   32.50   17.20
  -2  -9   4   35.40   11.40
  -2   9   4   39.60    8.50
  -2   9  -4   37.70    8.40
  -2   9  -4   42.40   12.70
   2   9  -4   35.50   16.20
  -3   9   4   24.30   14.20
   3   9  -4   32.70   19.90
   3  -9  -4   36.60   10.00
  -3   9   4   34.80    7.90
   3   9  -4   33.70   21.40
  -3  -9  -4   38.40   11.30
  -3   9  -4   39.00   12.60
  -3   9  -4   25.80    7.80
  -3  -9   4   38.70   11.10
  -4   9   4  119.59    8.30
   4  -9  -4  129.69   11.00
   4   9  -4  125.89   21.90
  -4  -9  -4  130.49   12.20
  -4   9  -4  134.79   13.50
  -4   9  -4  120.89    8.00
  -4  -9   4  111.59   11.20
   4  -9   4  105.99   10.50
  -4   9   4  109.59   12.00
   5  -9   4   37.70   10.70
  -5  -9   4   48.80   10.50
  -5   9  -4   44.40   13.70
  -5   9   4   46.60    8.00
   5   9  -4   43.60   19.00
  -5   9   4   41.40   14.40
   5  -9  -4   41.40    9.10
  -5  -9  -4   44.40   11.30
  -5   9  -4   47.20    7.90
   6   9  -4  107.49   18.90
  -6   9  -4   94.79    7.10
   6  -9   4  107.69   12.00
  -6   9   4   87.39    8.80
  -6  -9   4  109.79   17.80
  -6   9   4  101.89   12.00
  -7  -9   4   84.09   19.70
  -7   9   4   90.99   13.20
   7   9  -4   87.29   18.40
  -7   9   4   80.79    7.90
  -7   9  -4   66.59    9.10
  -8  -9   4   52.39   21.00
  -8   9   4   35.70   10.00
   8  -9   4   59.99   12.70
  -8   9  -4   44.10    8.40
  -9  -9   4   -1.30   23.20
   9  -9  -4  -12.10   14.90
  -9   9  -4   -1.40    9.20
  -9   9   4   -7.50   15.60
  -9   9  -4    3.90   15.30
  -9   9   4   -4.30   12.20
   0  10  -4  382.26   17.60
   0  10   4  396.96    9.90
   0 -10   4  357.76    9.40
   0 -10  -4  368.06   15.00
   0  10   4  395.36   19.20
   0 -10  -4  364.66    9.10
   0  10  -4  389.06    9.60
   1 -10  -4  602.74   12.70
  -1  10   4  628.84   10.10
   1 -10   4  592.94   10.90
  -1  10   4  595.84   17.40
  -1  10  -4  639.14   16.50
  -1 -10  -4  581.74   10.90
   1  10  -4  623.24   19.30
  -1 -10   4  576.74   11.00
  -1  10  -4  627.24    9.70
   1  10  -4  611.74   18.70
   1 -10  -4  592.54   10.60
  -2  10   4  898.51   18.80
   2  10  -4  954.80   28.70
  -2  10   4  962.10   10.30
   2 -10  -4  915.51   13.40
  -2 -10  -4  929.91   12.70
   2  10  -4  929.51   28.20
  -2  10  -4  976.80   17.20
  -2  10  -4  949.40   10.20
  -2 -10   4  919.71   12.30
  -3 -10  -4  446.56   12.90
  -3  10   4  411.06   14.60
  -3 -10   4  442.86   12.60
  -3  10   4  410.26    9.50
  -3  10  -4  437.76   15.00
  -3  10  -4  412.46    9.40
   3 -10  -4  419.86   11.70
  -4  10  -4  128.09   14.30
  -4  10   4  116.89    7.20
   4 -10  -4  109.59   10.80
  -4 -10  -4  132.89    9.60
  -4 -10   4  128.39   11.20
  -4  10  -4  116.19    6.80
  -4  10   4  119.99   16.00
   5 -10   4   62.89    9.40
  -5 -10  -4   63.49    9.40
  -5  10  -4   58.79   12.10
  -5  10  -4   63.69    7.00
  -5 -10   4   65.59   11.10
  -5  10   4   69.49    8.70
  -5  10   4   65.59   15.70
  -6  10  -4   71.29    7.50
  -6 -10  -4   81.89    9.50
  -6 -10   4   69.29   10.70
  -6  10  -4   77.29   12.40
  -6  10   4   79.29   13.80
  -6  10   4   74.79    8.70
   6 -10   4   67.89    9.90
   7 -10   4    7.80   10.80
  -7 -10   4    5.50    9.30
  -7  10  -4    7.50   13.00
  -7  10  -4   -8.90    9.50
  -7  10   4    8.70    7.60
  -7 -10  -4   -4.00   11.80
   8 -10  -4   13.10   15.70
  -8  10   4   27.60   11.10
  -8 -10   4   16.60   12.70
  -8  10   4   20.70   14.50
  -8  10  -4   13.90   10.60
  -1  11   4    3.60   15.60
  -1 -11   4    6.60   10.10
  -1  11  -4    9.40   13.50
  -1  11   4    6.50    8.80
   1  11  -4    9.40   14.90
   1  11  -4   10.90   13.50
  -1  11  -4   11.70    9.10
  -1 -11  -4   17.00   10.40
   1 -11   4   10.30    8.60
   1 -11  -4    6.40    8.50
   1 -11  -4    8.40   10.50
  -2 -11  -4   13.90   11.50
  -2  11  -4    7.40   13.90
  -2  11  -4   10.20    8.60
  -2  11   4   12.40    8.90
  -2 -11   4    9.90    9.20
   2 -11  -4    4.30    8.90
   2  11  -4    7.90   23.90
  -2  11   4   12.00   14.20
   2  11  -4    8.40   24.50
  -3  11   4  114.09   15.30
  -3 -11  -4  113.79   11.60
   3 -11  -4  110.79   10.30
  -3  11  -4  115.59   14.30
  -3  11  -4  111.59    8.60
  -3  11   4  109.79    9.10
  -3 -11   4  121.89   11.60
  -4 -11   4   35.50   11.10
  -4 -11  -4   44.10    9.10
  -4  11   4   36.70   16.60
  -4  11   4   23.70    6.80
  -4  11  -4   32.00   14.50
  -4  11  -4   26.90    6.90
   4 -11  -4   27.10   10.60
  -5  11   4  186.88    9.40
  -5 -11   4  191.18   11.20
  -5  11  -4  199.08   12.90
  -5 -11  -4  198.58   10.10
  -5  11  -4  174.18    7.80
  -5  11   4  177.58   14.00
  -6  11  -4   25.10    7.40
  -6  11   4   15.90    9.30
  -6  11   4   20.40   13.40
  -6 -11  -4   29.50    9.50
  -6 -11   4   24.90   11.10
  -7  11   4   70.49    8.80
  -7 -11  -4   73.89   12.40
  -7  11  -4   58.09   10.10
  -7 -11   4   88.79    9.90
  -8  11   4   17.80    9.50
   8 -11  -4   16.10   15.60
  -8 -11   4    4.30   10.50
  -8 -11  -4    4.60   13.40
  -8  11  -4    8.60   11.20
  -8  11   4   16.40   16.10
  -8  11  -4   12.70   15.10
   0  12   4 1454.65   14.60
   0  12   4 1429.66   26.20
   0  12  -4 1426.66   14.30
   0  12  -4 1385.46   22.80
   0 -12  -4 1283.57   13.60
   0  12  -4 1426.66   20.30
   0 -12   4 1260.37   14.00
  -1 -12   4  483.35   10.70
   1 -12  -4  525.55   13.40
  -1 -12  -4  480.05   10.50
   1 -12   4  496.65   11.10
   1  12  -4  522.05   19.60
  -1  12  -4  514.75   16.40
  -1  12   4  541.35    9.90
   1  12  -4  526.35   21.40
  -1  12   4  540.85   17.80
  -1  12  -4  535.55   11.10
   1 -12  -4  491.55   10.60
   2 -12  -4   20.60    9.70
  -2  12  -4   32.70   13.00
  -2  12  -4   29.30    8.70
  -2 -12   4   18.60   11.30
  -2  12   4   21.60    9.10
  -2 -12  -4   36.90   11.30
  -2  12   4   15.90   16.20
  -3  12   4  240.28   15.50
   3 -12  -4  263.07   11.00
  -3  12   4  262.57    8.60
  -3 -12   4  304.07   12.50
  -3  12  -4  268.47    8.10
  -3 -12  -4  294.77   10.30
  -3  12  -4  291.47   15.40
  -4  12   4  496.75   10.60
  -4 -12   4  523.95   12.60
  -4 -12  -4  533.45   11.50
  -4  12   4  493.75   18.80
  -4  12  -4  538.55   17.00
  -4  12  -4  481.95    9.00
   4 -12  -4  468.35   12.60
  -5 -12   4  107.89   11.30
  -5  12   4   95.49   16.30
  -5 -12  -4  103.79    9.70
  -5  12   4  102.39    9.60
  -5  12  -4  101.19    7.80
  -6  12   4   86.29   17.60
  -6  12  -4   51.09    7.70
   6 -12  -4   58.59   10.00
  -6 -12   4   51.29   11.30
  -6  12   4   52.79   10.10
  -6 -12  -4   50.69    9.50
   7 -12  -4   16.50   11.10
  -7 -12  -4   13.20   10.30
  -7  12   4   24.50   15.20
  -7  12   4    7.20   10.80
  -7  12  -4   11.60    8.50
  -7  12  -4   17.70   14.90
  -7 -12   4    9.00   12.10
   8 -12  -4   16.20   16.30
  -8  12   4   -6.90   12.40
  -8  12  -4   -4.50   20.60
  -8  12  -4    9.20    9.40
  -8  12   4   -3.80   17.40
  -8 -12  -4    7.20   10.70
   1  13  -4   22.00   18.10
  -1  13  -4   20.60   12.50
  -1  13  -4   23.80    9.80
   1 -13  -4   23.10   11.00
   1 -13   4   23.00   10.00
   1  13  -4   25.70   18.70
  -1 -13   4   12.10    9.00
   1 -13  -4   24.80    9.40
  -1 -13  -4   11.50   10.90
  -1  13   4   21.10   10.10
  -1  13   4   22.20   16.70
  -2  13   4   17.90   13.70
  -2  13  -4    3.30    9.20
   2 -13  -4   11.60    9.70
  -2  13   4    7.30    9.50
  -2  13  -4    4.30   13.00
  -2 -13   4    5.70   11.30
  -2 -13  -4   -0.20   11.40
  -3  13   4  107.09   17.30
  -3  13  -4   95.19    9.40
  -3  13   4  103.89    9.60
  -3 -13  -4  124.59   12.00
  -3 -13   4  101.39    9.90
  -3  13  -4   96.79   14.50
  -4  13   4    8.70    7.40
  -4 -13  -4    4.80   11.90
  -4  13  -4    2.80    9.10
  -4  13  -4    3.30   12.80
  -4 -13   4    2.20    9.50
  -4  13   4   -4.90   16.50
  -5 -13  -4  307.27   13.10
  -5  13   4  318.07   18.60
  -5  13   4  306.37   11.00
  -5 -13   4  329.97   10.50
  -5  13  -4  318.97   10.60
  -6  13   4   21.40   15.30
  -6  13  -4   20.70    8.50
  -6  13   4   15.70   10.50
  -6 -13  -4   12.60   12.10
  -6 -13   4   14.30   11.60
  -7  13  -4   29.70    9.20
  -7 -13   4   29.80   12.80
  -7  13  -4   49.70   20.30
  -7  13   4   14.60   11.90
   7 -13  -4   50.09   14.60
  -7 -13  -4   38.50   10.90
   0  14   4   49.30   20.80
   0  14  -4   49.90   16.20
   0 -14  -4   48.70   10.50
   0 -14   4   47.00   10.40
   0  14  -4   50.99   14.70
   1  14  -4  522.65   28.00
  -1  14   4  520.15   20.40
  -1  14  -4  526.65   16.70
  -1 -14  -4  479.55   10.90
   1 -14  -4  477.45    9.70
  -1  14   4  512.75   12.00
  -1 -14   4  463.95   12.50
   1  14  -4  501.75   26.80
  -1  14  -4  535.55   10.10
   1 -14   4  483.55   11.70
   2 -14  -4  599.44   13.10
  -2  14  -4  609.74   11.60
  -2 -14   4  667.63   11.90
  -2 -14  -4  627.14   13.60
  -2  14   4  643.54   10.40
  -2  14   4  623.64   17.40
  -3 -14  -4  171.98   12.60
  -3  14   4  163.98   10.40
  -3  14   4  158.38   15.50
  -3  14  -4  161.68    8.50
  -3 -14   4  184.18   12.00
  -3  14  -4  161.48   14.60
   3 -14  -4  166.68   11.30
   4 -14  -4   15.50   11.40
  -4 -14   4   15.90   11.60
  -4 -14  -4    7.80   10.00
  -4  14   4    2.50   10.10
  -4  14  -4    5.30    8.00
  -4  14   4    9.10   16.00
  -5 -14  -4    3.50    9.90
  -5  14   4   14.50    8.70
  -5 -14   4    7.00   11.60
   5 -14  -4    2.70   12.30
  -5  14   4    8.00   17.70
  -5  14  -4    7.20   10.10
  -6  14  -4   15.80   11.10
  -6 -14   4   12.00    9.90
  -6  14   4    7.50    9.50
  -6  14  -4   -1.50   19.20
   6 -14  -4   25.60   13.10
  -6 -14  -4    6.60   12.60
   7 -14  -4    8.00   15.30
  -7  14  -4    2.70   11.90
  -1  15   4   86.99   17.90
  -1 -15   4   85.39    9.50
  -1  15  -4   96.69   10.90
  -1  15   4   98.29    9.20
   1 -15  -4   85.29   10.40
   1 -15   4   76.69    8.80
  -1 -15  -4   71.59   11.60
  -1  15  -4   89.39   14.90
  -2 -15   4   13.40   11.40
  -2  15   4    1.50    8.50
  -2  15  -4    4.00   14.10
  -2 -15  -4    5.20    9.60
  -2  15   4   13.90   16.80
  -2  15  -4   13.90   10.10
   3 -15  -4   59.29   11.40
  -3 -15   4   72.99   12.30
  -3  15   4   48.70   10.60
  -3  15  -4   59.79    8.80
  -3 -15  -4   65.59   10.00
  -3  15   4   54.69   15.50
  -4  15   4   21.90    8.90
  -4  15   4   26.20   16.70
   4 -15  -4   15.50   12.20
  -4  15  -4   15.60   15.90
  -4 -15  -4   12.50   12.90
  -4  15  -4   24.20   10.50
  -4 -15   4   19.70   10.10
  -5  15   4  210.68   19.00
   5 -15  -4  229.48   13.90
  -5  15  -4  211.08   18.30
  -5  15  -4  163.08   12.00
  -5 -15   4  215.58   11.30
  -5 -15  -4  179.68   13.90
  -5  15   4  196.18   12.40
   6 -15  -4   10.60   13.80
  -6  15  -4   -3.80    9.30
  -6 -15  -4    5.60   10.80
  -6  15   4   16.60   12.40
  -6  15  -4   12.40   20.00
  -6 -15   4   10.60   12.80
   0  16  -4  131.29   20.90
   0 -16  -4  135.89    9.80
   0  16  -4  135.69   20.20
   0 -16   4  102.89   12.10
  -1 -16   4  202.68   10.80
  -1  16  -4  210.48   12.00
  -1  16  -4  198.48   16.10
  -1 -16  -4  189.48   12.40
  -1  16  -4  195.08   18.00
  -1  16   4  208.98   21.80
  -2  16   4  226.88   18.60
  -2  16  -4  212.78    9.80
  -2 -16   4  218.38   13.20
  -2 -16  -4  224.38   10.90
  -2  16  -4  219.28   17.30
  -2  16   4  233.68   12.40
  -3  16   4  171.88   16.80
  -3 -16  -4  174.08   10.80
  -3  16  -4  170.58    9.80
  -3 -16   4  178.78   13.20
  -3  16   4  167.98   11.90
  -3  16  -4  157.38   15.60
   4 -16  -4   29.00   12.70
  -4  16  -4   27.60   16.30
  -4  16   4   31.20    9.80
  -4 -16   4   25.00   10.60
  -4  16  -4   29.80   11.50
  -4 -16  -4   24.20   13.40
  -5 -16  -4   58.09   11.60
  -5 -16   4   38.10   13.20
  -5  16   4   34.80   12.40
   5 -16  -4   58.49   14.00
  -5  16  -4   45.30   10.00
  -5  16  -4   29.60   18.30
  -1  17   4   37.10   22.60
  -1 -17   4   41.70   12.60
  -1  17  -4   43.60   18.40
  -1 -17  -4   47.50   10.40
  -1  17  -4   30.80   18.30
  -2  17   4   15.60   20.40
  -2  17   4    1.50   10.10
  -2 -17   4    7.50   10.30
  -2 -17  -4    7.60   13.00
  -2  17  -4   10.00   12.20
  -2  17  -4    6.60   17.30
  -3  17  -4  236.38   11.30
  -3  17   4  245.28   13.00
  -3 -17  -4  233.98   14.00
  -3  17  -4  203.18   17.30
  -3 -17   4  242.18   14.10
  -3  17   4  321.67   20.40
  -4  17  -4   -5.20   17.60
  -4  17  -4    3.00   12.30
  -4  17   4    5.20   10.60
  -4 -17   4    7.60   10.70
  -4 -17  -4    9.30   13.60
   0 -18   4  208.08   14.30
   0 -18  -4  247.58   11.40
  -1  18  -4  141.89   24.20
  -1  18  -4  112.19   21.10
  -1 -18   4  124.59   13.80
  -1 -18  -4  115.19   14.10
  -2  18   4    7.50   13.60
  -2 -18   4   -9.10   13.60
  -2  18  -4   13.30   20.20
  -2  18  -4    9.80   18.30
  -2  18   4   14.30   21.80
  -2 -18  -4    6.50   11.30
  -2  18  -4    8.10   10.60
  -3  18   4   69.29   11.20
  -3  18  -4   38.30   13.70
  -3  18  -4   70.99   19.40
  -3 -18   4   65.79   11.60
  -3  18   4   29.80   23.90
  -3 -18  -4   58.99   14.80
  -1  -1  -5  136.49   15.70
  -1  -1   5  149.29   14.50
   1  -1  -5  151.88   18.60
   1   1  -5  140.69   14.80
  -1   1   5  150.88   16.40
   2   1  -5  410.36   17.30
  -2   1   5  420.96   16.20
   2  -1  -5  403.26   16.90
  -2  -1  -5  418.76   14.90
  -2  -1   5  401.86   17.70
  -2   1  -5  408.36   11.90
   3   1  -5  125.29   16.70
  -3   1  -5  141.19   11.40
  -3  -1  -5  137.39   11.00
  -3  -1   5  135.79   13.50
   3  -1  -5  133.39   13.20
  -3   1   5  121.69   13.80
   3  -1   5  137.79   10.60
   4  -1   5   76.79   12.30
  -4   1   5   92.39   10.70
  -4  -1   5   94.39   12.50
   4   1  -5   92.09   16.70
  -4  -1  -5   93.19   10.80
   4  -1  -5   78.69   12.50
  -4   1  -5   93.89   11.10
   4   1   5   83.39   10.40
   5  -1  -5   28.70   12.40
   5   1   5   37.20   11.80
  -5  -1   5   35.60    9.10
   5  -1   5   32.40   12.00
  -5   1   5   41.80   12.00
  -5  -1  -5   36.20    9.90
   5   1  -5   34.60   15.10
  -5   1  -5   40.10   10.80
  -6  -1  -5  252.07   11.50
   6   1   5  211.08   14.40
   6   1  -5  249.97   13.70
  -6   1  -5  258.77    9.90
  -6  -1   5  242.48   10.30
  -6   1   5  245.58   12.10
   6  -1  -5  256.27   16.70
   6  -1   5  209.38   11.60
   7  -1   5   48.40   14.60
  -7  -1  -5   39.00   11.30
   7   1  -5   48.70   15.40
  -7  -1   5   33.30   12.30
   7  -1  -5   35.80   13.60
  -7   1   5   46.80   10.20
   7   1   5   36.00   15.10
  -8   1  -5   52.09   10.60
   8   1  -5   63.79   14.80
  -8   1   5   51.49   10.30
   8  -1   5   58.39   16.80
  -9   1   5    4.60   11.40
  -9   1  -5   16.60   13.80
   9   1  -5    4.40   12.30
  -9  -1  -5    8.10   13.30
  10   1  -5   74.09   16.90
 -10   1  -5   66.59   13.10
 -10   1   5   80.09   14.00
 -10  -1   5   72.99   16.60
 -10  -1  -5   71.89   16.30
  10  -1  -5   72.09   15.40
   0   2   5  296.97   17.30
   0   2   5  274.07   19.40
   0  -2  -5  304.37   20.80
   0   2  -5  279.17   13.60
   0   2  -5  306.27   17.10
   0  -2   5  304.97   15.60
   0  -2  -5  308.87   16.60
  -1  -2   5  326.27   18.30
   1   2  -5  316.17   18.50
  -1   2   5  312.97   12.90
  -1  -2  -5  294.47   18.50
  -1   2   5  320.87   20.30
   1  -2  -5  316.67   15.90
  -1   2  -5  309.37   12.40
  -2   2   5  232.38   12.90
  -2   2  -5  261.77   12.10
   2   2  -5  235.48   17.60
  -2  -2  -5  248.58   13.10
   2  -2  -5  232.18   14.50
  -2  -2   5  238.58   16.20
   3  -2   5  300.97   11.40
  -3   2   5  313.17   15.00
  -3  -2   5  311.77   14.10
  -3   2  -5  329.07   12.70
   3  -2  -5  311.57   16.10
   3   2  -5  298.27   16.50
  -3  -2  -5  315.57   11.80
  -4   2   5  176.08   12.80
  -4  -2   5  171.08   11.00
   4  -2  -5  166.08   12.20
   4   2  -5  178.88   16.60
   4  -2   5  175.38   10.70
  -4  -2  -5  186.58   12.40
  -4   2  -5  186.98   11.70
  -5  -2  -5   31.20   11.40
   5  -2   5   25.30   10.60
  -5  -2   5   36.40   10.70
   5   2  -5   23.70   14.00
   5  -2  -5   48.80   14.60
  -5   2  -5   23.90    9.10
  -5   2   5   20.30   12.20
  -6   2   5   78.09   11.60
  -6  -2   5   77.99   11.40
   6   2  -5   70.89   14.50
   6  -2  -5   67.89   15.40
  -6   2  -5   74.29   11.10
  -6  -2  -5   87.39   10.60
   6  -2   5   67.09   13.20
   7  -2   5   45.90   14.90
  -7   2  -5   47.70   11.90
  -7  -2   5   48.90   12.00
  -7   2   5   56.49   12.60
  -7  -2  -5   46.70   11.00
   7   2  -5   44.40   13.90
  -8   2   5   14.90   13.60
  -8   2  -5    8.20   10.10
   8  -2  -5   12.90   13.60
   8  -2   5   13.90   17.00
  -8  -2  -5   16.50   12.50
   9   2  -5   57.79   14.50
  -9   2  -5   63.89   14.10
  -9  -2  -5   59.59   13.30
  -9  -2   5   58.79   14.30
   9  -2  -5   58.99   14.30
  10   2  -5   11.10   15.80
 -10   2  -5   16.40   13.20
 -10  -2  -5    7.20   15.40
 -10  -2   5   -0.40   15.90
  10  -2  -5   -5.10   15.30
  -1   3  -5  297.87   13.60
  -1  -3  -5  283.77   21.30
  -1  -3   5  284.57   17.00
  -1   3  -5  290.57   10.70
  -1  -3   5  277.17   18.10
  -1  -3  -5  276.37   16.80
  -1   3   5  293.07   11.30
  -1   3   5  310.47   18.70
   1   3  -5  269.37   17.10
   1  -3  -5  295.07   17.00
  -2  -3  -5   45.10   13.30
  -2   3   5   15.30   12.30
   2   3  -5   18.60   16.40
  -2   3  -5   19.00    9.10
  -2  -3   5   18.00   13.10
   2  -3  -5   17.00   10.80
  -3   3   5  334.07   15.90
   3  -3  -5  337.57   15.30
   3  -3   5  327.47   13.30
  -3   3  -5  332.97   13.00
  -3  -3  -5  376.86   12.50
   3   3  -5  329.27   16.10
  -3  -3   5  334.57   14.00
   4  -3   5  464.85   12.80
  -4  -3   5  468.35   13.80
  -4   3  -5  486.65   11.00
   4  -3  -5  452.75   14.30
  -4  -3  -5  479.55   12.70
   4   3  -5  476.85   18.80
  -4   3   5  480.15   12.20
  -5   3   5    3.10   12.20
   5   3  -5    7.20   13.60
  -5  -3  -5   17.10   10.10
  -5   3  -5    6.40    8.90
   5  -3  -5   -4.00   13.50
   5  -3   5    9.60   10.10
  -5  -3   5    4.70   10.80
   6  -3   5   61.29   13.60
  -6   3  -5   79.29   11.80
  -6  -3   5   70.79   11.30
  -6   3   5   82.99   12.80
  -6  -3  -5   82.29   11.70
   6   3  -5   76.69   13.30
   6  -3  -5   63.39   15.60
  -7   3   5   80.39   11.20
  -7  -3  -5   81.59   11.40
   7  -3   5   88.29   14.10
   7   3  -5   86.59   13.30
  -7   3  -5   84.29    9.60
  -7  -3   5   83.09   11.80
  -8  -3   5  292.07   14.10
   8   3  -5  290.07   14.80
  -8  -3  -5  285.07   13.40
   8  -3   5  257.07   17.90
  -8   3   5  314.97   14.30
  -9  -3   5   12.80   14.30
   9   3  -5    1.40   14.30
  -9  -3  -5   15.80   13.90
  -9   3  -5    2.90   11.40
 -10  -3  -5    5.60   18.00
  10  -3  -5    7.10   18.70
  10   3  -5    0.70   15.90
 -10   3  -5    3.20   16.80
 -10  -3   5   10.60   16.10
   0  -4  -5  969.30   16.00
   0  -4  -5  980.20   23.10
   0   4  -5  995.60   17.30
   0  -4   5  985.50   16.10
   0   4   5 1034.60   17.70
   0   4   5  970.90   24.60
  -1  -4   5  931.51   16.40
  -1   4   5 1015.40   14.00
   1   4  -5  968.80   19.30
  -1   4   5 1040.60   25.70
   1   4   5  984.10   23.40
  -1   4  -5  968.90   18.00
  -1   4  -5 1012.80   13.60
   1  -4  -5  972.60   18.70
  -1  -4  -5 1080.39   27.70
  -1  -4  -5  981.60   17.90
  -2  -4  -5  107.79   14.20
  -2   4   5  107.09    7.90
  -2   4   5  116.99   13.90
  -2  -4  -5  107.09   17.90
  -2  -4   5  114.79   13.30
   2   4  -5  106.39   14.10
  -2   4  -5  104.69    7.70
  -2   4  -5  102.59   10.00
   2  -4  -5   99.89   10.50
   3  -4   5  165.58   11.80
  -3  -4   5  164.18   13.40
   3   4  -5  156.08   16.50
  -3   4  -5  177.48   12.10
  -3  -4  -5  166.78   12.20
  -3   4   5  156.48   14.50
   3  -4  -5  150.68   11.20
   4   4  -5  285.87   15.00
   4  -4  -5  263.97   11.40
  -4  -4  -5  290.27   12.90
  -4   4   5  280.47   12.20
  -4  -4   5  276.87   14.10
  -4   4  -5  286.27   10.50
   4  -4   5  260.97   10.40
   5  -4   5  450.45   11.70
  -5   4   5  487.45   14.40
  -5  -4   5  453.25   13.30
  -5  -4  -5  473.45   12.70
   5   4  -5  467.15   15.40
   5  -4  -5  446.36   14.70
  -5   4  -5  480.55   12.80
  -6  -4   5   45.90   12.50
   6  -4   5   50.09   13.20
  -6   4   5   55.89   12.70
   6   4  -5   50.49   12.40
  -6  -4  -5   55.19   11.60
  -6   4  -5   56.39   12.00
   6  -4  -5   41.20   11.10
   7  -4   5   85.49   15.10
  -7   4  -5  108.19   10.80
   7  -4  -5   93.79   12.90
  -7  -4   5   95.49   11.90
  -7  -4  -5  100.29   13.40
  -7   4   5  110.79   13.40
   8  -4   5   23.60   16.30
  -8  -4   5    6.90   14.60
  -8  -4  -5   10.60   13.80
   9   4  -5   10.10   16.00
  -9  -4   5    1.20   16.20
   9  -4  -5   10.90   15.20
  -9   4  -5   27.70   14.80
  -9  -4  -5   19.10   13.80
 -10  -4  -5    8.20   15.50
  10  -4  -5   10.50   17.40
 -10   4  -5   18.30   16.70
  10   4  -5    5.50   15.50
 -10  -4   5   17.80   18.00
  -1   5  -5  751.72   15.80
   1  -5   5  760.92   11.70
   1  -5  -5  731.93   16.20
  -1   5  -5  761.72   11.90
   1   5  -5  715.13   18.00
   1  -5  -5  772.52   11.60
  -1  -5  -5  764.12   23.80
  -1  -5   5  715.53   15.10
  -1   5   5  796.42   24.10
  -1  -5  -5  747.03   15.10
   1   5   5  725.23   21.20
  -1   5   5  782.42   12.30
  -2   5   5  528.05   16.10
  -2  -5   5  561.04   16.40
  -2   5  -5  541.75   12.50
  -2  -5  -5  567.04   23.70
  -2   5  -5  535.55    9.80
   2  -5  -5  533.85   12.60
  -2  -5  -5  542.55   18.70
   2   5  -5  538.15   18.10
  -2  -5   5  572.94   13.10
  -2   5   5  555.44    9.00
   3  -5   5   54.49    8.70
  -3   5  -5   50.29    6.30
   3  -5  -5   57.39   11.80
  -3  -5  -5   58.19   18.30
  -3   5  -5   48.80   11.50
  -3   5   5   58.39    6.20
  -3  -5   5   59.59   12.60
   3   5  -5   57.59   14.90
  -3   5   5   59.09   14.60
  -3  -5  -5   57.49   14.30
  -4  -5   5  366.06   15.00
   4  -5  -5  355.76   13.40
  -4  -5  -5  367.96   14.00
  -4   5  -5  383.06   12.90
  -4   5   5  360.16   14.60
   4   5  -5  370.26   17.10
   4  -5   5  363.46   12.40
   5  -5   5  280.57   12.10
   5   5  -5  290.57   15.10
  -5   5   5  309.47   13.40
   5  -5  -5  305.97   13.30
  -5  -5   5  294.17   13.50
  -5   5  -5  303.77   12.60
  -5  -5  -5  295.87   13.40
  -6  -5   5  511.35   13.40
   6  -5  -5  494.95   13.00
  -6   5   5  510.85   12.60
   6   5  -5  532.75   16.00
  -6  -5  -5  525.05   14.50
   6  -5   5  513.65   12.30
  -6   5  -5  539.65   11.60
  -7   5   5   35.20   11.20
  -7  -5   5   33.20   13.20
   7  -5   5   31.20   11.80
  -7  -5  -5   35.70   11.10
   7   5  -5   49.99   13.20
  -8  -5  -5  207.78   14.70
  -8  -5   5  202.18   13.60
   8   5  -5  186.28   13.60
   8  -5   5  173.58   14.00
   9  -5  -5   65.69   15.10
  -9   5   5   51.99   13.20
  -9  -5  -5   62.79   16.40
  -9  -5   5   69.79   14.10
  -9   5  -5   75.79   15.60
   9   5  -5   55.69   15.80
   0   6  -5    2.70   11.30
   0  -6   5    1.70    7.70
   0   6   5    5.70    8.10
   0  -6  -5    4.20    9.00
   0   6  -5    2.70    9.50
   0  -6  -5    1.20   12.40
   0   6   5    7.90   17.10
   1   6   5 1268.77   25.50
  -1   6   5 1425.16   28.30
  -1   6  -5 1280.07   16.70
  -1   6  -5 1336.37   13.80
  -1   6   5 1349.16   14.00
   1   6  -5 1245.78   19.70
  -1  -6  -5 1275.87   25.70
   1  -6   5 1342.87   13.70
   1  -6  -5 1299.17   19.00
   1  -6  -5 1308.77   13.30
  -1  -6   5 1222.08   16.40
  -1  -6  -5 1249.57   16.20
  -2  -6  -5  464.15   28.40
  -2   6   5  430.66   18.20
  -2  -6  -5  446.76   22.60
  -2   6   5  443.46    8.60
  -2  -6  -5  469.45   14.30
   2  -6  -5  457.15   13.20
  -2   6  -5  427.96    9.40
  -2  -6   5  454.65   13.90
   2   6  -5  453.35   17.20
  -2   6  -5  442.96   12.20
   3  -6   5 1138.39   13.20
  -3  -6  -5 1200.58   27.10
  -3   6  -5 1162.68   16.10
  -3  -6   5 1208.28   20.20
  -3   6   5 1113.09   16.90
   3   6  -5 1201.08   21.70
  -3   6   5 1124.59   11.10
   3  -6  -5 1168.18   15.50
  -3  -6  -5 1227.08   32.00
  -3   6  -5 1125.09   10.80
  -4  -6  -5   44.10   14.60
  -4   6  -5   41.30   12.10
   4  -6   5   40.50   10.90
  -4  -6   5   46.90   13.10
  -4   6   5   49.80   11.70
  -4   6   5   47.30    6.10
   4   6  -5   55.69   14.50
  -4   6  -5   44.30    6.10
   4  -6  -5   52.69   11.90
   5  -6   5    5.20   11.40
  -5   6  -5    5.10   11.90
  -5  -6   5   11.70   12.50
  -5   6   5    9.70   13.30
  -5  -6  -5    8.30   13.30
   5  -6  -5    2.10   12.40
   5   6  -5    4.70   13.90
  -6  -6   5    3.40   12.50
   6  -6   5    8.60   12.00
  -6   6   5    6.90   13.10
  -6  -6  -5    7.20   12.10
   6   6  -5   10.60   13.50
   7  -6   5   72.99   14.10
   7   6  -5   71.49   14.10
  -7  -6  -5   67.29   15.00
  -7   6  -5   69.69   11.10
  -7  -6   5   80.19   13.60
  -7   6   5   65.59   14.30
   8  -6   5  -13.10   15.70
  -8  -6  -5   -1.80   14.80
   8   6  -5    6.80   14.20
   8  -6  -5    0.10   13.30
  -8   6   5   -1.90   12.30
  -8  -6   5   -3.90   14.20
  -9  -6   5  206.68   15.20
  -9  -6  -5  219.98   18.10
  -9   6  -5  236.28   16.40
   9  -6  -5  188.78   16.70
   9   6  -5  221.38   16.70
  -1   7  -5  111.49    8.80
   1  -7  -5  119.19   11.40
  -1   7  -5   95.19   12.20
   1  -7  -5  130.49    7.60
   1  -7   5   96.89    9.00
  -1   7   5  134.59   19.80
  -1   7   5  107.49    7.80
  -1  -7   5   97.39    9.80
  -1  -7  -5   96.09   11.10
   1   7   5  103.19   18.30
   1   7  -5  103.69   12.60
  -1  -7  -5  102.29   17.00
  -2  -7   5  416.76   11.40
  -2   7   5  372.86   17.90
   2   7  -5  410.16   18.20
  -2   7  -5  412.16   13.90
  -2  -7  -5  415.26   13.30
   2  -7  -5  430.26   12.60
  -2   7  -5  401.36    9.40
  -2   7   5  406.96    8.40
  -3  -7  -5   79.29   11.70
  -3   7   5   66.59    6.30
  -3   7  -5   83.19   12.20
   3  -7  -5   78.89    8.60
  -3  -7   5   81.39   11.40
  -3   7   5   77.29   13.90
   3   7  -5   78.19   16.10
  -3   7  -5   67.39    7.50
   4  -7   5  472.05   12.30
  -4  -7  -5  496.35   27.70
  -4  -7   5  493.15   16.60
  -4   7   5  473.25   16.00
  -4   7   5  470.85    9.30
   4   7  -5  494.05   18.00
  -4  -7  -5  488.45   25.70
   4  -7  -5  497.15   13.10
  -4   7  -5  478.75   14.30
  -4   7  -5  434.96    8.90
   5  -7   5   -3.10   11.30
  -5  -7  -5    7.20   15.50
  -5  -7   5    8.70   14.10
   5  -7  -5    6.50    9.90
  -5   7   5    3.60   14.20
   5   7  -5    2.10   15.80
  -5   7   5    6.10    7.60
  -5   7  -5   10.60    7.40
   6  -7   5  846.72   14.80
  -6  -7  -5  865.01   20.90
  -6   7   5  854.51   14.80
   6   7  -5  877.71   18.00
  -6  -7   5  850.41   18.20
  -6   7  -5  788.22   10.40
  -6   7   5  811.82    9.60
   7  -7   5  123.49   14.30
  -7  -7  -5  111.49   15.70
  -7   7   5   98.39    7.70
  -7   7   5  121.39   14.70
  -7   7  -5   97.19    8.60
   7   7  -5  107.89   13.70
  -7  -7   5  123.69   13.60
   8   7  -5  200.68   15.40
   8  -7   5  203.98   13.40
  -8   7  -5  136.79   10.00
  -8  -7   5  207.18   17.20
  -8  -7  -5  206.18   18.20
  -8   7   5  165.38    8.70
  -8   7   5  212.08   13.60
   9   7  -5    8.60   15.60
   9  -7  -5  -12.90   18.70
  -9   7  -5    2.60    8.40
  -9  -7  -5    3.30   19.50
  -9   7   5   12.70   11.10
  -9   7  -5    5.40   13.60
  -9  -7   5    4.80   16.20
   0  -8  -5   42.50    8.90
   0   8   5   45.60   17.10
   0   8  -5   46.00   11.90
   0   8  -5   49.99    9.60
   0  -8   5   42.50    9.50
   0  -8  -5   52.99   12.80
   0   8   5   50.79    9.90
  -1  -8  -5 1516.85   15.70
   1   8  -5 1555.04   20.80
  -1   8   5 1541.55   24.50
   1  -8  -5 1546.35   18.20
  -1   8   5 1577.74   13.10
  -1  -8   5 1443.96   14.60
   1   8  -5 1574.04   22.50
  -1   8  -5 1549.54   19.20
   1  -8  -5 1556.04   13.30
   1  -8   5 1536.35   13.70
  -1   8  -5 1578.94   12.80
  -1  -8  -5 1572.74   29.00
   1   8   5 1534.75   31.30
  -2   8   5  347.77   17.10
  -2   8  -5  365.26    8.10
   2  -8  -5  353.66   11.40
  -2   8   5  362.96    9.50
   2   8  -5  355.06   17.70
  -2  -8   5  348.67   10.50
  -2  -8  -5  348.77   10.80
  -2   8  -5  355.56   13.60
  -3   8   5  216.28   15.00
  -3  -8   5  258.17   12.40
  -3   8  -5  227.58   13.90
   3  -8  -5  221.08   11.00
  -3   8  -5  221.08    8.40
  -3   8   5  234.28    8.80
  -3  -8  -5  226.18   12.40
   3   8  -5  223.78   16.00
  -4   8  -5    4.80    7.10
  -4  -8   5    2.20   10.20
   4  -8   5   11.80    7.90
   4  -8  -5    3.50   10.90
  -4  -8  -5   11.70   11.00
  -4   8  -5   11.50   12.30
   4   8  -5   10.50   14.50
  -4   8   5    3.10   14.10
  -4   8   5    8.90    7.50
   5   8  -5  358.76   16.90
  -5   8  -5  334.77   12.10
   5  -8   5  329.27   12.20
  -5   8   5  347.17    9.20
  -5   8  -5  319.57    8.70
  -5  -8   5  346.67   17.00
  -5   8   5  329.37   13.30
   5  -8  -5  336.87   13.10
  -6  -8   5   35.70   14.20
  -6   8   5   24.70    8.30
   6  -8  -5   45.00   10.00
  -6  -8  -5   30.00   21.10
  -6  -8  -5   38.90   22.70
   6   8  -5   28.60   14.40
  -6   8   5   41.10   11.60
  -6   8  -5   38.80   11.00
  -6   8  -5   33.40    6.70
   6  -8   5   29.80   12.00
  -7  -8   5  107.49   15.20
   7   8  -5  114.19   15.80
   7  -8   5  114.79   13.70
  -7   8  -5  106.79    8.90
  -7  -8  -5  117.39   21.60
  -7  -8  -5  115.79   21.10
  -7   8   5  129.19   13.10
  -7   8   5  101.59    9.00
   8   8  -5   47.00   14.90
  -8   8  -5   58.79   13.00
  -8  -8   5   40.30   14.60
  -8   8   5   61.49   13.20
  -8  -8  -5   53.29   23.10
  -8   8   5   43.40    8.40
  -8   8  -5   34.90    9.80
   9   8  -5   15.60   17.90
  -9  -8  -5   16.00   24.70
  -9  -8  -5   11.10   24.10
  -9   8  -5   -0.90    9.10
  -9  -8   5    5.60   18.40
  -9   8   5   21.40   15.30
  -9   8  -5    4.30   17.60
   9  -8  -5   13.10   18.50
  -9   8   5    1.90   11.60
  -1   9  -5   44.20    7.10
   1   9  -5   48.80   12.30
   1  -9  -5   44.10    8.50
  -1   9   5   51.29   15.10
  -1   9  -5   49.70   12.10
   1  -9  -5   49.80   11.60
   1   9   5   46.60   18.80
  -1  -9  -5   47.20   10.50
  -1  -9   5   44.60    8.90
  -1  -9  -5   45.90   16.50
   1   9  -5   52.09   14.70
   1  -9   5   46.30    8.80
  -1   9   5   49.90    7.50
   2   9  -5  100.49   15.30
  -2  -9   5   92.29    9.60
   2   9  -5   99.89   14.00
  -2   9   5  102.09   15.60
   2  -9  -5  101.69   10.30
  -2   9   5   95.89    7.40
  -2   9  -5   98.09   10.60
  -2   9  -5   98.09    7.10
  -2  -9  -5   95.79    9.70
  -3  -9  -5  174.28   10.00
  -3   9  -5  167.78    7.00
  -3   9   5  154.48   16.50
  -3   9  -5  175.58   12.90
   3   9  -5  166.88   18.50
  -3   9   5  174.78    7.10
  -3  -9   5  184.28    9.80
   3  -9  -5  175.38   10.90
  -4   9  -5  860.11   16.30
  -4   9   5  785.72   17.90
  -4  -9  -5  936.21   14.80
   4   9  -5  849.61   23.50
  -4  -9   5  887.91   12.20
   4  -9  -5  842.92   13.60
  -4   9   5  853.51    9.70
  -4   9  -5  815.02   10.40
   5  -9  -5   16.50   11.00
  -5   9  -5   12.50   10.60
  -5   9   5    8.00    6.20
  -5   9   5   19.40   14.70
  -5   9  -5    5.70    6.30
   5   9  -5   12.00   16.90
  -5  -9   5   11.50    8.50
  -5  -9  -5   20.50    9.10
   6  -9   5  118.69   10.00
  -6  -9   5  131.09   17.80
  -6   9   5  132.79   15.80
   6  -9  -5  132.49   10.40
   6   9  -5  126.39   16.70
  -6   9  -5  122.99    8.50
  -6   9   5  124.59    7.60
  -7   9   5   51.99   16.60
   7   9  -5   37.50   18.20
  -7  -9   5   48.00   18.30
  -7   9   5   32.70    9.50
  -7   9  -5   24.40    7.40
   8   9  -5  421.46   21.70
  -8  -9   5  428.06   21.20
  -8   9  -5  335.97   11.60
  -8   9  -5  496.35   15.40
  -8   9   5  306.87   10.50
   9  -9  -5   14.90   15.20
  -9   9   5   13.50   15.70
  -9  -9   5   15.20   23.70
  -9   9  -5    6.80   18.90
  -9   9   5    3.90    9.90
  -9   9  -5    4.20   11.50
   0  10   5  178.28   10.80
   0 -10  -5  165.18   12.70
   0  10  -5  186.48   14.70
   0  10  -5  177.88   10.20
   0  10   5  181.78   17.80
   0 -10   5  178.58   10.60
   0 -10  -5  160.58    9.90
  -1  10  -5  609.94   11.00
   1 -10  -5  578.44   10.70
   1  10  -5  605.44   16.20
   1 -10  -5  581.14   12.70
  -1  10   5  596.44   19.20
  -1  10  -5  622.94   15.90
   1  10  -5  609.24   18.30
  -1  10   5  624.24   11.40
  -1 -10   5  555.64   12.50
   1 -10   5  566.14   11.00
  -1 -10  -5  578.94   12.40
  -2  10   5    3.70   14.60
   2  10  -5   -1.20   15.10
  -2  10   5   -1.70    8.30
  -2  10  -5    6.50   12.80
  -2 -10  -5    4.30   10.80
   2  10  -5    4.40   17.40
  -2 -10   5    0.40   10.80
  -2  10  -5    1.90    8.00
   2 -10  -5   -1.30    9.20
  -3 -10   5  349.27   10.70
  -3  10   5  334.47   17.50
   3  10  -5  353.06   22.80
  -3 -10  -5  378.36   11.10
  -3  10  -5  358.26   14.50
  -3  10   5  341.47    9.90
  -3  10  -5  345.77    9.40
   3 -10  -5  350.26   11.80
   3  10  -5  334.27   23.40
  -4  10  -5   24.30   13.70
  -4  10   5   22.60   16.60
  -4 -10  -5   26.30   11.60
   4 -10  -5   25.20    8.30
  -4 -10   5   46.50   10.70
   4  10  -5   34.80   25.50
  -4  10  -5   25.10    8.10
  -4  10   5   28.70    8.20
  -5  10   5   20.10    6.80
  -5 -10  -5   26.40   11.30
  -5  10   5   26.50   15.20
  -5 -10   5   19.40    8.50
  -5  10  -5   26.60    8.30
  -6 -10   5   24.60   11.00
  -6  10   5   20.00   15.60
  -6  10   5   15.30    8.90
  -6  10  -5   25.00    8.90
  -6 -10  -5   25.70   11.30
  -7 -10   5    7.90   11.50
  -7  10   5   -8.80   13.50
  -7  10   5    6.60    9.60
  -7 -10  -5    2.20    9.90
  -7  10  -5   -1.60   13.00
  -7  10  -5   -2.10    7.70
   8 -10  -5   18.20   15.60
  -8  10  -5    4.90    7.90
  -8  10  -5   -1.10   14.50
  -8 -10   5   14.70   12.50
  -8  10   5   15.60   10.70
  -8 -10  -5    9.30   10.60
  -1  11  -5  389.86   15.90
  -1 -11  -5  365.76    9.90
   1 -11  -5  359.16   13.00
   1  11  -5  381.96   16.40
  -1  11   5  385.96    9.30
   1  11  -5  370.46   17.40
  -1  11   5  367.76   17.80
  -1  11  -5  408.76    8.70
   1 -11   5  360.86    8.60
  -1 -11   5  349.57   10.10
   1 -11  -5  350.66    8.20
  -2  11  -5  174.58    8.00
   2 -11  -5  166.88   11.50
  -2 -11  -5  181.38    9.90
  -2  11  -5  184.78   13.90
   2  11  -5  166.68   19.20
  -2  11   5  156.48    8.00
   2  11  -5  167.48   19.10
  -2 -11   5  163.38   10.00
  -2  11   5  158.38   16.60
  -3  11   5  105.89   15.20
  -3  11  -5  108.99    7.40
  -3 -11   5  121.49    9.50
  -3 -11  -5  121.99    9.80
  -3  11  -5  113.89   14.10
   3 -11  -5  108.59   10.20
  -3  11   5  109.39    7.50
  -4  11  -5   26.60    8.50
  -4 -11  -5   32.40   11.70
  -4  11   5   28.10   13.10
   4 -11  -5   39.20   10.80
  -4  11  -5   28.70   11.80
  -4  11   5   25.80    8.60
  -4 -11   5   48.00   10.70
  -5 -11  -5  263.27   12.10
   5 -11  -5  231.18   10.20
  -5  11   5  243.38    9.70
  -5  11   5  233.58   14.20
  -5 -11   5  241.58    9.80
  -5  11  -5  234.68    9.10
  -6 -11  -5  443.76   13.20
  -6  11   5  426.86   10.80
  -6 -11   5  467.35   12.50
  -6  11  -5  417.56   10.50
  -6  11   5  446.96   18.20
  -7 -11  -5    1.70   12.10
  -7  11   5    2.10   14.50
  -7  11  -5    7.40   17.30
  -7  11   5   11.90   10.30
  -7  11  -5    8.30    9.70
  -7 -11   5   -0.60   11.70
  -8  11   5    3.40   11.50
   8 -11  -5   19.80   16.20
  -8 -11   5    2.90   12.90
  -8  11  -5   14.60   19.00
  -8  11   5   16.30   16.20
  -8 -11  -5   11.20   10.80
  -8  11  -5    9.80    9.20
   0 -12  -5   15.10   12.70
   0  12  -5   16.80   13.80
   0  12  -5   14.80    8.30
   0  12  -5   21.00   11.80
   0 -12  -5    8.80    7.90
   0  12   5   12.40    8.60
   0 -12   5    9.40    8.30
   0  12   5   19.00   17.50
  -1  12  -5  155.98   12.90
  -1  12   5  170.68   16.10
  -1  12  -5  172.38   10.20
   1  12  -5  167.28   17.10
  -1 -12  -5  145.09   11.30
   1 -12  -5  161.28   11.60
  -1  12   5  172.88   10.10
   1 -12   5  150.28   10.20
   1 -12  -5  159.88    7.70
  -1 -12   5  151.68   11.60
   1  12  -5  169.08   16.20
  -2  12  -5   12.60    7.10
  -2  12  -5   16.90   13.20
   2  12  -5   15.40   22.20
   2  12  -5   11.20   23.40
  -2 -12   5   20.20    9.20
   2 -12  -5   12.30   11.00
  -2  12   5    6.80   16.20
  -2 -12  -5    5.70    9.20
  -2  12   5   13.70    7.40
  -3  12  -5   92.89   14.80
  -3  12   5   87.19   15.10
  -3  12   5   95.69    9.30
   3 -12  -5   84.89   10.20
  -3 -12   5  102.99   11.30
  -3 -12  -5   86.79   12.00
  -3  12  -5   90.79    9.30
  -4 -12   5   15.80    8.70
   4 -12  -5    9.20    8.90
  -4  12   5   19.20    7.40
  -4  12   5   19.10   16.60
  -4  12  -5   21.40    8.60
  -4 -12  -5    9.70   11.70
  -5  12   5   27.60   17.40
  -5  12  -5    6.30    8.80
  -5 -12   5    4.90    8.90
  -5  12   5    0.20    7.50
  -5 -12  -5    7.30   11.10
  -5  12  -5   -0.10   13.40
   6 -12  -5    6.10    9.80
  -6 -12  -5    9.30   12.10
  -6  12   5   -5.30   13.90
  -6 -12   5    5.90    9.20
  -6  12  -5    2.60    9.80
  -6  12   5    2.50    8.00
   7 -12  -5    3.50   11.40
  -7 -12   5   -0.10    9.90
  -7 -12  -5    9.00   12.20
  -7  12   5    6.30    8.50
  -7  12  -5   11.20   10.20
  -7  12  -5   -1.30   15.40
   1 -13  -5   70.99   11.40
  -1  13  -5   70.89    8.50
  -1 -13  -5   66.39    9.10
   1 -13   5   72.39    8.50
   1  13  -5   76.89   16.50
  -1  13   5   84.49   17.50
   1  13  -5   74.79   16.90
  -1  13   5   85.59    8.60
  -1 -13   5   62.49    9.50
  -1  13  -5   77.99   12.70
   1 -13  -5   71.19    7.80
  -2  13  -5   20.10   13.10
  -2  13  -5    2.50    7.60
  -2  13   5    5.70   14.20
  -2 -13   5    1.50    9.30
  -2 -13  -5    9.30    9.40
  -2  13   5    2.80    7.90
   2 -13  -5   -1.00   11.50
  -3  13  -5  105.99    7.60
  -3  13   5   94.49    9.50
  -3  13   5  104.39   15.60
  -3 -13  -5   89.69    9.90
  -3 -13   5  103.89   12.00
  -4  13  -5  123.49    8.20
   4 -13  -5  112.19   11.50
  -4  13   5  118.39   16.40
  -4 -13  -5  125.59    9.90
  -4  13  -5  124.39   16.70
  -4  13   5  121.69   10.10
  -4 -13   5  129.39   11.90
  -5 -13   5   22.40   11.20
  -5  13  -5   21.10    7.90
  -5  13   5   10.80    9.60
   5 -13  -5   16.40   11.90
  -5 -13  -5   20.00    9.70
   6 -13  -5    5.20   13.00
  -6  13   5    2.30   18.80
  -6  13  -5   18.90   18.10
  -6 -13  -5    9.20    9.80
  -6  13  -5    6.90    8.40
  -6 -13   5    7.30   11.80
  -6  13   5    2.60    8.70
  -7 -13   5   -3.00   10.60
  -7  13   5    6.10    9.50
   7 -13  -5   14.50   14.40
  -7  13  -5    4.90    9.30
  -7 -13  -5    1.80   10.60
  -7  13  -5    7.00   16.20
   0 -14   5   12.30   10.20
   0  14  -5    6.60   13.10
   0  14   5   13.20   19.50
   0  14  -5   11.90   15.30
   0 -14  -5    0.90   10.00
   1 -14  -5   15.40    9.80
   1 -14   5   12.10    8.20
   1  14  -5   15.40   19.90
  -1  14   5   22.00    8.70
  -1  14  -5   13.00   10.20
  -1 -14  -5   17.00   10.90
   1 -14  -5   10.20   12.90
  -1 -14   5   10.10    9.30
  -1  14  -5   14.90   14.80
   1  14  -5   14.80   20.20
  -1  14   5   16.10   14.90
  -2  14  -5    8.10    7.70
  -2  14   5    5.70   10.10
  -2 -14   5   -6.30   11.60
  -2 -14  -5    3.90    9.60
  -2  14   5   10.70   16.50
   2 -14  -5    7.70   12.00
  -3  14  -5   15.40    7.90
  -3  14   5   15.60    8.30
  -3 -14   5   16.30    9.70
   3 -14  -5   13.80   10.90
  -3  14  -5   11.60   14.10
  -3 -14  -5   -3.80    9.60
  -3  14   5    9.20   17.50
  -4  14  -5   -5.30    9.70
  -4  14   5    8.80   16.30
  -4  14   5    2.60    8.10
  -4 -14   5    9.10    9.30
   4 -14  -5   -4.30   11.30
  -4 -14  -5    0.40   12.30
   5 -14  -5   38.80   12.80
  -5  14   5   45.10   10.90
  -5  14   5   37.30   14.90
  -5 -14  -5   23.40   12.50
  -5  14  -5   24.80   10.50
  -5  14  -5   35.60   17.50
  -5 -14   5   41.50   12.20
  -6 -14  -5  -16.10   12.30
  -6  14  -5   14.70   19.30
  -6  14  -5    3.40   10.80
  -6  14   5   -3.90   11.90
   6 -14  -5   -1.20   13.30
  -6 -14   5    6.00   12.30
  -1 -15   5    1.20   11.80
  -1  15  -5    2.60   14.60
   1  15  -5    3.40   26.50
  -1  15   5    8.30   17.90
   1  15  -5    3.00   26.90
  -1  15  -5    8.00   13.00
  -1 -15  -5   11.60   11.40
   1 -15  -5   17.50   10.20
  -1  15  -5    4.00   10.70
  -1  15   5   13.50   11.10
  -2  15  -5   -2.40   16.00
   2 -15  -5    4.90   12.50
  -2  15  -5   11.10   10.30
  -2  15   5    6.00   11.00
  -2 -15   5    6.60   11.70
  -2 -15  -5   12.90   12.20
  -3  15   5    1.10   15.60
  -3 -15   5    6.80    9.60
   3 -15  -5    1.20   12.90
  -3  15  -5    3.30   10.40
  -3  15   5    1.90    8.60
  -3 -15  -5   13.60   10.00
  -4  15  -5   28.10   16.10
  -4  15  -5   29.00   10.90
  -4 -15   5   17.90   12.00
  -4 -15  -5   22.90   13.00
   4 -15  -5   28.20   12.30
  -4  15   5   21.40   17.10
  -4  15   5   30.80   10.90
  -5 -15  -5    6.90   10.70
  -5  15   5    4.20   11.70
   5 -15  -5    8.50   13.00
  -5  15  -5   -0.10   17.40
  -5 -15   5    9.90   12.00
  -5  15  -5    4.50    8.90
   6 -15  -5   -5.90   11.70
  -6  15  -5    7.70   20.00
  -6  15   5   12.70   10.20
  -6 -15  -5   11.60   11.10
  -6  15  -5   15.90   12.10
  -6 -15   5   12.50   10.60
   0 -16  -5   31.60   11.40
   0  16  -5   30.20   18.80
   0  16  -5   28.20   19.70
   0 -16   5   26.10   10.00
  -1 -16  -5   38.10    9.80
  -1 -16   5   42.90   12.50
  -1  16  -5   31.90    9.60
  -1  16   5   33.40   18.70
  -1  16  -5   35.90   17.40
  -1  16  -5   38.30   14.40
  -2  16   5   26.00    9.40
  -2  16   5   26.70   19.60
  -2 -16   5   26.80   10.30
  -2  16  -5   14.20   11.10
  -2 -16  -5   29.40   10.60
  -2  16  -5   28.90   16.80
   3 -16  -5   -1.20   13.70
  -3 -16   5  -11.60   10.80
  -3  16   5    2.20    9.60
  -3 -16  -5    7.50   10.20
  -3  16  -5    8.50    9.10
  -3  16  -5    1.70   14.70
   4 -16  -5    8.70   13.00
  -4  16  -5    8.10    9.40
  -4  16  -5   12.40   16.70
  -4 -16   5   12.70   12.30
  -4 -16  -5   21.90   11.10
  -4  16   5   22.90   11.90
  -5  16   5   54.19   10.40
  -5 -16   5   27.40   11.20
  -5 -16  -5   33.40   14.20
   5 -16  -5   49.99   14.30
  -5  16  -5   55.89   18.60
  -5  16  -5   28.50   12.30
  -1 -17   5    4.80   10.70
  -1  17   5   10.50   23.50
  -1 -17  -5    8.10   12.90
  -1  17  -5    6.30   17.80
  -1  17  -5   11.10   16.70
  -2 -17  -5    6.20   10.80
  -2  17  -5    1.00   10.10
  -2  17  -5    8.90   17.10
  -2  17   5   -0.80   12.70
  -2 -17   5   -8.20   13.10
  -2  17   5    6.10   18.50
  -3  17   5   43.20   12.70
  -3  17   5   33.20   17.30
  -3 -17  -5   35.50   11.30
  -3  17  -5   36.80   10.20
  -3 -17   5   41.70   13.10
  -3  17  -5   31.40   18.50
  -4  17   5   14.60   13.10
  -4 -17  -5   20.70   11.30
  -4  17  -5   15.30   10.40
  -4  17   5   31.50   21.40
  -4 -17   5    1.10   13.70
  -4  17  -5   19.10   17.50
   0 -18  -5   17.70   13.40
   0 -18   5    9.90   11.00
  -1 -18   5   28.60   13.70
  -1  18  -5   32.40   20.10
  -1 -18  -5   34.10   13.70
  -1  18  -5   27.70   20.80
  -2  18   5   88.39   11.90
  -2  18  -5   46.70   13.80
  -2  18  -5   92.69   18.20
  -2  18   5   63.89   23.00
  -2 -18   5   66.09   11.90
  -2  18  -5   55.49   18.60
  -2 -18  -5   53.29   14.50
  -3  18   5   46.70   21.30
  -3  18  -5   38.60   17.20
  -3 -18   5   55.09   14.50
  -3  18   5   30.10   14.60
  -3  18  -5   79.59   11.90
  -3 -18  -5   65.49   12.60
   0   0   6 6352.96   39.90
   0   0  -6 6490.05   40.90
   1   0  -6 2715.23   28.00
  -1   0   6 2840.72   30.20
  -2   0   6   13.00   11.60
  -2   0  -6   10.60   11.40
   2   0  -6   15.20   15.70
  -3   0   6  424.86   15.70
   3   0  -6  382.76   15.10
  -3   0  -6  424.76   12.60
  -4   0  -6 1610.54   16.70
  -4   0   6 1530.95   18.30
   4   0  -6 1523.45   21.90
  -5   0  -6  639.54   13.00
  -5   0   6  597.64   14.00
   5   0  -6  619.44   18.10
   6   0  -6  157.28   15.40
  -6   0  -6  153.98    9.30
  -6   0   6  136.99   11.60
   7   0  -6  199.48   13.10
  -7   0   6  218.28   13.30
  -8   0   6    2.60   12.60
  -8   0  -6   19.20   12.50
  -9   0  -6    7.20   13.70
  -9   0   6    8.80   11.60
   9   0  -6    3.20   15.90
 -10   0  -6  140.19   16.80
 -10   0   6  113.79   14.60
  10   0  -6  125.99   17.60
   1  -1  -6   10.60   15.80
   1   1  -6    5.10   11.60
  -1  -1   6    6.70   14.20
  -1   1   6    9.40   16.20
  -1  -1  -6    3.60   14.80
  -2  -1  -6   58.89   11.60
   2  -1  -6   55.79   12.60
  -2   1  -6   51.59   11.00
   2   1  -6   56.09   13.70
  -2  -1   6   56.49   12.00
  -2   1   6   57.59   14.50
  -3  -1   6    1.80   12.60
  -3   1   6   11.00   13.50
  -3  -1  -6    8.80   10.10
  -3   1  -6    1.70    8.70
   3   1  -6    2.60   12.20
   3  -1  -6    6.30   12.50
   4  -1  -6  173.48   15.60
  -4   1   6  196.68   13.10
  -4   1  -6  201.28   11.20
  -4  -1   6  205.58   10.80
  -4  -1  -6  199.48    9.60
   4   1  -6  185.98   15.70
   5   1  -6   23.70   14.00
  -5   1  -6    9.10    9.10
  -5   1   6   22.40   12.20
  -5  -1   6   24.50   11.30
  -5  -1  -6   11.00    9.70
   5  -1  -6    9.10   12.90
   5  -1   6    9.40   12.70
   6   1  -6   36.00   11.80
  -6   1   6   48.30   12.00
   6  -1  -6   41.10   15.60
  -6   1  -6   39.10   10.70
  -6  -1   6   34.00   11.60
  -6  -1  -6   36.20   10.60
   6  -1   6   37.80   12.70
  -7  -1  -6    5.40    9.30
  -7  -1   6    3.20   12.30
  -7   1   6    6.30   12.10
  -8   1   6   70.29   13.40
  -9  -1   6   -2.00   14.20
   9  -1  -6   -0.50   16.30
  -9  -1  -6   12.00   13.40
  -9   1  -6    5.40   13.50
   9   1  -6    0.90   15.20
 -10  -1   6   -2.50   16.50
  10   1  -6   22.70   16.70
  10  -1  -6   -4.30   17.90
 -10   1   6   15.60   16.60
 -10   1  -6    6.70   15.80
 -10  -1  -6    3.30   15.60
   0   2   6 1303.47   27.40
   0  -2   6 1367.76   23.30
   0   2  -6 1346.57   25.30
   0  -2  -6 1371.96   22.90
   0  -2  -6 1365.66   27.60
   0   2  -6 1237.48   20.00
   0   2   6 1204.88   24.00
   1   2  -6 1087.19   21.90
  -1  -2   6 1144.89   22.10
   1  -2  -6 1170.48   23.30
  -1   2   6 1142.79   17.70
  -1  -2  -6 1082.59   22.80
  -1   2   6 1181.78   24.90
  -1   2  -6 1119.29   16.10
  -2  -2   6 1798.02   23.30
  -2   2   6 1835.92   23.90
   2   2  -6 1684.53   22.00
  -2   2  -6 1724.13   17.70
   2  -2  -6 1716.53   21.00
  -3  -2  -6 2317.77   21.60
  -3  -2   6 2183.78   21.80
  -3   2  -6 2316.67   19.40
   3   2  -6 2123.09   24.10
  -3   2   6 2272.47   23.00
   3  -2  -6 2116.89   23.20
   4  -2  -6  219.08   14.50
  -4  -2   6  216.58   12.80
  -4  -2  -6  218.98   10.90
   4   2  -6  203.18   12.90
  -4   2   6  217.98   10.90
  -4   2  -6  201.58    9.50
  -5  -2   6    8.90   10.50
   5   2  -6    9.80   13.60
  -5   2   6    5.20   12.00
  -5   2  -6    9.30    8.80
   5  -2  -6    0.80   14.60
  -5  -2  -6    6.50   11.20
   5  -2   6    3.90   10.10
   6  -2   6   61.89   10.90
  -6  -2  -6   68.59   10.60
  -6   2   6   68.79   10.50
   6   2  -6   67.99   13.30
  -6  -2   6   72.39   12.20
  -7  -2   6   41.40   11.80
  -7   2  -6   43.90    9.90
  -7   2   6   39.30   12.00
   7  -2   6   36.70   12.10
  -8  -2   6   58.29   12.80
  -8   2  -6   55.49   10.30
  -8  -2  -6   58.79   12.40
   9  -2  -6  207.48   14.90
   9   2  -6  258.17   16.20
  -9  -2  -6  258.57   14.80
  -9  -2   6  246.08   15.40
  -9   2  -6  283.37   14.80
  10   2  -6   64.59   16.30
 -10  -2  -6   87.19   16.20
 -10  -2   6   76.19   16.60
 -10   2   6   69.09   17.70
 -10   2  -6   87.79   16.90
  10  -2  -6   64.89   18.80
  -1  -3  -6  322.57   19.90
  -1  -3   6  332.17   16.60
  -1   3   6  352.56   21.00
   1   3  -6  312.57   15.60
  -1   3   6  331.27   11.20
   1  -3  -6  327.57   17.20
  -1  -3  -6  328.47   17.70
  -1  -3   6  312.27   15.90
  -1   3  -6  327.77   10.60
  -2  -3  -6  211.28   14.80
  -2  -3   6  235.68   14.30
  -2   3  -6  212.28   10.10
  -2   3   6  230.58   14.20
   2   3  -6  223.08   15.00
   2  -3  -6  221.88   14.50
   3  -3  -6   59.49   13.50
  -3   3  -6   66.69    9.30
  -3  -3  -6   73.59   11.70
   3   3  -6   69.69   13.60
  -3  -3   6   74.69   12.20
  -3   3   6   62.99   14.60
   4  -3   6    6.70    9.00
  -4   3   6   13.00   12.40
  -4  -3  -6   10.50   11.10
  -4  -3   6    6.50   11.00
  -4   3  -6    6.40   10.40
   4   3  -6   11.80   13.00
   4  -3  -6    6.10   10.10
   5  -3   6  173.88   12.70
  -5  -3  -6  178.08   10.80
  -5   3   6  180.28   11.00
   5   3  -6  174.48   14.00
   5  -3  -6  181.38   14.20
  -5  -3   6  189.58   11.70
  -5   3  -6  190.78   10.30
   6  -3  -6  280.17   13.80
   6   3  -6  282.27   14.20
  -6  -3  -6  303.57   11.60
  -6   3   6  289.37   14.00
   6  -3   6  272.17   14.30
  -6  -3   6  284.67   12.20
   7  -3   6   16.90   14.00
  -7  -3  -6   28.90   11.10
   7   3  -6   29.00   13.10
  -7  -3   6   19.60   11.70
  -7   3   6   33.80   10.70
   8   3  -6   18.40   13.50
  -8   3   6   25.30   10.90
  -8  -3   6   35.10   12.90
  -8  -3  -6   36.90   14.10
   9   3  -6   52.99   14.30
   9  -3  -6   43.20   18.10
  -9  -3  -6   57.79   15.80
  -9   3  -6   47.10   11.90
  -9  -3   6   50.49   14.10
 -10  -3  -6   50.89   18.50
  10   3  -6   43.00   16.50
 -10   3  -6   66.09   17.00
 -10  -3   6   62.39   16.50
  10  -3  -6   58.69   18.80
   0   4   6  766.32   20.90
   0   4  -6  800.32   16.00
   0  -4  -6  819.92   20.20
   0   4  -6  835.72   15.60
   0  -4  -6  814.82   14.40
   0   4   6  849.02   16.70
   0  -4   6  831.12   15.00
  -1   4  -6 1370.36   15.00
   1   4   6 1302.97   22.60
   1   4  -6 1279.87   19.70
  -1  -4  -6 1419.96   27.80
  -1   4   6 1416.76   27.50
  -1  -4   6 1262.67   19.20
  -1   4   6 1382.06   16.40
  -1  -4  -6 1290.77   19.00
  -1   4  -6 1307.47   18.10
   1  -4  -6 1297.47   20.00
   2   4  -6 1639.44   21.80
  -2   4  -6 1624.44   17.10
  -2  -4   6 1714.93   21.90
  -2   4   6 1692.53   14.70
  -2   4   6 1676.43   24.30
  -2   4  -6 1614.94   13.90
   2  -4  -6 1649.83   19.90
  -2  -4  -6 1631.04   26.30
   3   4  -6  572.84   16.10
   3  -4  -6  574.64   15.00
  -3  -4  -6  582.04   15.10
  -3   4  -6  596.94   13.80
  -3  -4   6  568.24   15.00
  -3   4   6  580.04   14.70
  -4   4   6  339.67   12.30
  -4  -4  -6  354.96   13.50
   4  -4  -6  314.77   11.80
   4   4  -6  332.57   16.40
   4  -4   6  334.67   10.80
  -4  -4   6  332.07   14.30
  -4   4  -6  324.47   10.60
   5  -4   6  198.98   12.70
   5  -4  -6  208.18   13.70
  -5   4  -6  210.58   10.00
   5   4  -6  210.78   13.60
  -5   4   6  202.98   11.20
  -5  -4  -6  212.98   12.40
  -5  -4   6  207.18   11.60
   6  -4   6   55.19   13.30
  -6   4   6   74.89   12.90
   6   4  -6   56.99   12.30
  -6  -4   6   68.09   10.90
  -6  -4  -6   59.69   12.00
  -6   4  -6   66.19    9.90
   7  -4   6   72.49   14.70
  -7  -4   6   58.99   11.70
  -7  -4  -6   62.79   13.00
  -7   4   6   60.89   11.00
  -7   4  -6   61.79   10.30
  -8  -4  -6  103.59   14.20
  -8  -4   6  104.49   12.90
  -9  -4  -6   18.80   13.70
  -9   4   6   22.90   12.70
   9   4  -6   21.50   14.40
  -9  -4   6   19.20   14.30
   9  -4  -6   16.10   19.10
  -9   4  -6   26.30   15.40
 -10  -4  -6   33.10   16.30
  10   4  -6   22.90   17.80
  10  -4  -6   28.20   16.80
 -10   4   6   15.20   15.60
 -10  -4   6   25.30   18.60
 -10   4  -6   33.20   14.50
  -1   5  -6   11.20    9.40
  -1  -5  -6   14.60   15.40
  -1  -5   6   10.90   11.10
   1   5   6   13.70   14.30
   1   5  -6   13.60   12.90
  -1  -5  -6   11.00   10.80
  -1   5   6   15.10    8.50
  -1   5  -6   15.90    8.30
   1  -5  -6   11.70    7.60
   1  -5  -6   16.80   11.50
  -1   5   6   16.70   19.60
  -2   5  -6  123.39    9.90
  -2   5  -6  120.99    8.00
  -2   5   6  136.89   17.30
  -2  -5   6  133.79   12.90
  -2  -5   6  130.99   14.70
   2  -5  -6  131.19   12.20
  -2  -5  -6  137.19   17.40
  -2  -5  -6  127.49   13.30
  -2   5   6  127.79    8.10
   2   5  -6  131.59   14.80
  -3   5   6   19.60   12.10
  -3   5  -6   13.50   11.10
  -3  -5  -6   17.10   16.20
   3  -5  -6    8.40    9.80
  -3  -5   6   12.70   12.50
  -3  -5  -6   13.40   12.10
  -3   5  -6   12.90    6.90
   3   5  -6   13.50   12.00
  -3   5   6   11.70    7.40
  -4   5   6  521.15   15.70
  -4   5  -6  511.95   11.70
  -4  -5   6  499.45   15.10
   4   5  -6  501.95   17.50
   4  -5  -6  492.15   14.00
  -4  -5  -6  517.65   14.60
   5  -5   6   51.59    9.40
  -5   5   6   44.70   10.70
   5  -5  -6   39.90   12.50
  -5   5  -6   55.29   11.30
  -5  -5   6   51.49   10.40
  -5  -5  -6   47.70   11.80
   5   5  -6   52.69   11.90
   6  -5   6  119.89   10.70
  -6   5   6  121.29   11.00
   6  -5  -6  130.59   13.90
  -6  -5  -6  125.39   12.70
   6   5  -6  127.99   14.50
  -6  -5   6  126.09   11.40
   7  -5   6   86.79   11.90
   7  -5  -6   77.29   12.40
   7   5  -6   99.19   13.10
  -7  -5  -6   93.39   13.20
  -7   5  -6   90.09   10.40
  -7   5   6  105.29   13.90
  -7  -5   6   87.19   12.00
  -8  -5  -6  168.18   14.70
   8   5  -6  155.98   13.60
  -8  -5   6  156.98   15.40
   9   5  -6    9.70   13.50
  -9  -5   6    2.70   13.90
   9  -5  -6   22.50   15.00
  -9  -5  -6   -3.00   13.80
  -9   5  -6   -6.40   15.50
   0   6  -6 2302.77   18.70
   0  -6  -6 2221.78   17.60
   0  -6   6 2204.48   18.00
   0   6  -6 2264.57   20.90
   0  -6  -6 2153.48   24.10
   0   6   6 2346.87   19.90
   0   6   6 2181.98   29.40
  -1   6  -6  622.94   15.00
   1   6   6  604.74   18.70
  -1  -6   6  578.44   13.80
  -1   6   6  718.93   24.50
  -1  -6  -6  616.14   19.50
   1  -6  -6  626.24   11.00
   1  -6  -6  622.74   14.70
  -1   6   6  645.54   11.80
   1   6  -6  602.14   16.30
  -1   6  -6  631.64   11.30
  -1  -6  -6  608.84   13.70
   1  -6   6  621.64   11.30
  -2   6   6  257.07    9.10
  -2   6  -6  245.58   12.80
  -2   6   6  250.27   18.40
  -2   6  -6  251.57    8.70
  -2  -6   6  272.57   13.20
   2   6  -6  256.67   15.10
  -2  -6  -6  262.67   20.60
   2  -6  -6  254.37   12.50
  -2  -6  -6  247.18   13.30
  -3  -6   6  391.66   15.40
   3   6  -6  365.56   16.20
  -3   6   6  361.16   16.40
   3  -6  -6  375.86   12.60
  -3   6  -6  365.16   11.50
  -3  -6  -6  386.56   18.50
  -3   6  -6  362.86    7.50
  -3   6   6  378.16    8.70
  -3  -6  -6  402.06   22.10
  -4   6   6  299.57   12.90
   4   6  -6  308.37   15.90
  -4  -6  -6  323.17   18.80
  -4   6  -6  319.47   11.00
   4  -6  -6  308.97   12.80
  -4  -6   6  304.37   14.00
  -4  -6  -6  311.87   14.70
  -4   6   6  297.87    7.70
  -4   6  -6  293.37    7.30
   5  -6   6   88.29   11.60
  -5   6   6   93.69   11.20
  -5  -6  -6  100.79   13.50
   5  -6  -6   87.19   10.60
  -5  -6   6   96.89   13.00
  -5   6  -6   94.39   10.30
   5   6  -6  103.09   14.30
  -5   6   6   87.69    6.30
   6  -6   6   28.40   12.30
  -6   6   6   27.20   13.80
  -6  -6   6   22.70   12.60
  -6  -6  -6   25.60   13.60
   6   6  -6   25.70   13.40
  -7  -6   6   40.30   11.80
  -7   6   6   38.70   14.60
   7   6  -6   40.50   14.10
  -7  -6  -6   44.70   13.60
  -8  -6  -6    8.00   14.90
  -8  -6   6    7.00   12.20
   8  -6  -6   15.30   13.40
   8   6  -6    8.90   12.50
   9  -6  -6   18.90   19.20
  -9  -6   6   17.20   16.20
  -9  -6  -6    9.70   16.60
  -9   6   6    1.60   14.00
   9   6  -6   12.20   15.80
  -9   6  -6    1.70   13.20
  -1  -7   6   81.19    9.30
  -1   7  -6   90.69   12.40
   1   7   6   81.39   16.40
  -1   7   6   90.59   18.60
   1  -7  -6   81.19    8.50
  -1  -7  -6   77.09   10.80
  -1   7   6   90.39    9.10
  -1   7  -6   82.29    8.80
   1  -7  -6   84.29   11.00
   1   7  -6   85.49   11.90
  -1  -7  -6   81.59   15.80
   1  -7   6   83.19    8.90
  -2  -7  -6    2.40   19.70
  -2  -7  -6    0.20   10.90
  -2   7  -6    6.60   11.20
   2  -7  -6    0.90   10.50
  -2  -7   6    4.50    9.10
  -2   7  -6    3.40    7.20
  -2  -7  -6    1.30   17.30
   2   7  -6    4.00   12.90
  -2   7   6   -0.70    6.30
  -2   7   6   -6.50   16.80
  -3   7   6  482.05    9.60
  -3   7  -6  499.35   14.00
   3   7  -6  484.95   17.00
  -3   7   6  462.15   16.90
  -3  -7  -6  514.85   13.50
  -3  -7   6  514.75   16.80
  -3   7  -6  472.65    9.40
  -3  -7   6  507.75   13.30
  -3  -7  -6  489.55   26.30
  -3  -7  -6  510.65   30.10
   3  -7  -6  485.55   13.10
  -4   7   6  208.58   12.90
  -4   7  -6  209.78    7.90
  -4   7  -6  219.08   12.90
   4   7  -6  219.28   16.10
   4  -7  -6  209.98   12.30
  -4  -7   6  227.68   14.90
  -4  -7  -6  221.28   22.20
  -4  -7  -6  220.58   18.80
  -4   7   6  224.88    8.60
  -5   7   6    6.10   11.80
   5  -7  -6    5.60   12.30
  -5  -7  -6    4.60   15.40
  -5  -7   6    0.50   14.40
  -5  -7  -6    4.40   15.00
  -5   7   6    3.40    7.70
   5   7  -6    4.50   14.20
  -5   7  -6    3.60    7.60
  -6  -7  -6   74.29   14.50
  -6   7   6   68.19   14.40
  -6   7   6   70.19    8.50
   6   7  -6   81.39   13.60
  -6  -7   6   75.19   13.00
  -6   7  -6   75.59    6.50
  -7   7  -6  114.69    7.20
  -7  -7   6  129.69   13.90
   7   7  -6  130.19   14.10
  -7   7   6  148.29   15.10
  -7  -7  -6  137.49   16.20
  -7   7   6  117.89    9.10
  -8   7  -6  103.69    8.40
  -8  -7  -6  167.78   17.70
  -8  -7   6  167.48   15.40
  -8   7   6  116.29   10.60
   8   7  -6  179.88   15.30
   9   7  -6    7.10   15.80
  -9   7   6    7.80   11.20
  -9  -7   6    4.00   16.10
  -9  -7  -6    4.30   19.60
  -9   7  -6    8.40   17.10
  -9   7   6   19.80   14.10
   9  -7  -6   16.90   18.90
  -9   7  -6    4.70   10.60
   0   8   6   51.99    9.90
   0  -8  -6   53.29   11.50
   0  -8  -6   51.99    8.80
   0   8  -6   55.79    9.20
   0   8  -6   56.39   11.90
   0  -8   6   35.60    9.40
   0   8   6   49.60   16.20
   1   8  -6  182.48   14.50
   1  -8  -6  180.48   12.20
  -1   8   6  184.88   16.90
  -1  -8  -6  171.38   17.20
  -1   8  -6  173.08    9.00
   1   8   6  171.38   17.50
  -1  -8  -6  171.78   10.80
  -1  -8   6  157.38   10.80
   1   8  -6  182.68   13.30
  -1   8   6  171.18    9.00
   1  -8  -6  164.08    8.50
   1  -8   6  179.48    9.00
  -1   8  -6  176.88   12.50
  -2   8   6  278.67   18.00
   2   8  -6  293.87   15.20
   2  -8  -6  279.57   11.40
  -2   8  -6  285.77   11.20
  -2  -8  -6  287.07   12.30
  -2   8   6  292.37    9.20
  -2   8  -6  289.27    8.90
  -2  -8   6  287.47   12.10
  -3   8  -6  198.48   11.10
  -3  -8   6  230.98   12.20
   3  -8  -6  198.98   11.40
  -3  -8  -6  202.38   12.80
  -3   8  -6  207.68    8.80
   3   8  -6  194.48   15.70
  -3   8   6  172.58   14.10
  -3   8   6  199.88    8.60
  -4  -8   6   49.60   13.00
  -4   8   6   42.50   14.30
  -4  -8  -6   47.30   11.30
  -4   8  -6   60.49   12.60
   4  -8  -6   55.69   10.80
   4   8  -6   51.39   15.10
  -4   8  -6   47.80    7.40
  -4   8   6   46.20    7.70
  -4  -8   6   53.19   10.50
  -5   8   6   58.89   14.70
   5  -8  -6   61.29   10.00
  -5   8   6   45.10    6.70
  -5   8  -6   61.89    6.40
  -5  -8   6   53.49   13.80
   5   8  -6   50.89   14.60
  -6  -8   6   22.80   12.50
  -6   8   6   29.70   12.00
   6   8  -6   31.20   13.30
  -6  -8  -6   28.30   21.70
  -6   8   6   26.50    8.10
  -6  -8  -6   27.30   22.30
  -6   8  -6   28.50    8.00
  -7   8  -6   32.50    7.20
  -7   8   6   53.19   15.90
   7   8  -6   36.70   13.80
  -7  -8  -6   35.90   20.90
  -7   8   6   28.40    7.80
  -7  -8  -6   38.20   20.30
  -7  -8   6   40.40   14.90
  -8  -8   6    7.90   16.10
   8   8  -6   18.40   14.50
  -8   8  -6    8.40    7.90
  -8  -8  -6   14.00   20.30
  -8   8   6   13.30   16.80
  -8  -8  -6   18.10   21.30
  -8   8   6    9.80   10.10
   8  -8  -6   16.50   13.10
  -8   8  -6   15.50   13.10
   9   8  -6   19.20   17.90
  -9  -8  -6   13.10   24.40
   9  -8  -6   12.60   15.30
  -9   8   6    5.70   15.30
  -9  -8   6    7.40   18.10
  -9   8  -6    9.90   14.60
  -9   8  -6   -0.50   11.50
  -9   8   6    6.80    9.40
  -9  -8  -6   11.70   25.00
   1  -9   6  221.08    9.80
  -1  -9  -6  215.08   16.80
   1   9   6  221.68   17.60
   1  -9  -6  214.78   11.30
  -1   9   6  242.08   18.70
  -1   9   6  221.18    8.20
  -1  -9  -6  214.48   11.30
  -1  -9   6  203.48    9.90
  -1   9  -6  220.08   13.20
   1   9  -6  209.58   13.60
  -1   9  -6  218.38    9.80
   1  -9  -6  207.88    9.40
   1   9  -6  216.58   14.50
   2   9  -6  187.78   15.70
  -2   9  -6  211.38   12.70
  -2  -9   6  178.38   10.20
  -2   9   6  182.38   16.10
  -2   9   6  175.78    7.80
  -2   9  -6  210.28    9.20
   2  -9  -6  180.68   10.70
  -2  -9  -6  175.38   12.10
   3   9  -6    2.50   14.80
  -3   9   6    0.60   15.30
  -3   9   6    5.30    6.70
   3  -9  -6   -2.70   10.20
  -3   9  -6   -2.00   12.60
  -3  -9  -6    3.00   11.00
  -3  -9   6   -0.50    8.80
  -3   9  -6   -0.50    6.20
  -4   9   6   19.90   12.40
   4  -9  -6   21.20    8.90
  -4  -9  -6   24.10   11.90
  -4  -9   6   14.60    8.60
   4   9  -6   13.80   15.40
  -4   9  -6   10.60    6.50
  -4   9   6   15.10    6.70
  -5  -9   6  348.77   11.70
  -5   9   6  311.97   13.60
   5  -9  -6  340.97   10.80
   5   9  -6  354.66   18.30
  -5  -9  -6  373.56   12.50
  -5   9   6  328.27    9.40
  -5   9  -6  328.47    9.20
  -6   9  -6  458.45   13.60
  -6   9   6  412.06   17.00
   6  -9  -6  419.16   11.20
   6   9  -6  420.46   18.70
  -6   9   6  385.76   10.20
  -6  -9   6  428.26   17.30
  -6   9  -6  366.96    8.40
  -7   9   6   27.50   13.70
  -7   9  -6   22.80    8.80
  -7  -9   6   24.90   16.50
  -7   9   6   27.20    8.00
   7   9  -6   33.30   16.70
  -8  -9   6   10.50   18.50
   8   9  -6   19.70   18.10
   8  -9  -6   14.60   13.00
  -8   9   6   17.60   13.90
  -8   9   6   16.80   10.40
  -8   9  -6   16.10   10.20
  -8   9  -6   31.60   13.90
  -9  -9   6   43.80   20.70
   9  -9  -6   67.29   19.00
  -9   9   6   28.00   12.80
  -9   9  -6   48.70   10.10
   0  10  -6   75.19   10.00
   0 -10  -6   72.19    9.40
   0  10  -6   75.89   11.80
   0  10   6   98.59   17.00
   0 -10   6   77.49   10.00
   0 -10  -6   74.29   12.40
   0  10  -6   76.19   13.50
   0  10   6   77.59   10.30
  -1  10  -6    6.90    8.70
   1  10  -6    7.40   12.00
  -1  10   6    1.80    9.40
   1 -10   6    3.40    7.20
  -1 -10  -6    4.70   17.00
  -1  10  -6   10.50   12.50
  -1  10   6    8.20   15.90
   1 -10  -6    4.30    9.40
  -1 -10  -6    3.70   10.10
   1  10  -6    9.60   11.90
  -1 -10   6   13.00   10.50
   1 -10  -6    0.90    6.90
   2 -10  -6   85.69   10.20
   2  10  -6   84.29   14.30
  -2 -10   6   86.79   11.20
  -2  10   6   90.29    8.70
  -2  10   6   95.09   15.40
  -2  10  -6  101.89   13.30
  -2  10  -6   87.29    8.30
  -2 -10  -6   88.29   11.10
   2  10  -6   84.09   16.80
   3  10  -6   31.30   16.30
   3  10  -6   32.20   15.70
   3 -10  -6   34.80   10.60
  -3  10  -6   53.69   13.70
  -3  10   6   37.60    7.10
  -3  10  -6   21.40    7.00
  -3  10   6   24.60   16.90
  -3 -10   6   29.40    9.20
  -3 -10  -6   28.80   11.80
  -4 -10   6    4.90    8.50
  -4  10   6    1.90    6.60
   4 -10  -6    0.20   11.70
  -4 -10  -6    2.80    8.80
  -4  10  -6    3.10    6.50
  -4  10  -6    0.10   10.60
   4  10  -6   -0.70   18.00
  -4  10   6    3.00   13.20
  -5  10   6  163.18   16.60
  -5 -10  -6  170.58    9.90
   5  10  -6  163.88   20.80
  -5 -10   6  161.18   11.00
  -5  10   6  148.59    7.60
  -5  10  -6  154.88    7.20
  -6  10   6   14.20   16.40
   6  10  -6   22.10   18.50
  -6  10   6   21.30    7.50
  -6 -10   6   13.90    8.90
  -6  10  -6   17.00    7.20
  -6 -10  -6   25.00    9.30
   7  10  -6   89.89   21.40
  -7 -10   6  100.69   10.10
  -7  10  -6  102.19   13.90
  -7  10   6  101.29   17.60
  -7 -10  -6   76.09   12.50
  -7  10  -6   73.89   10.00
  -7  10   6   78.79    8.60
  -8 -10  -6    0.70   12.90
  -8 -10   6    2.20   12.60
   8 -10  -6   11.10   13.20
  -8  10  -6   -1.00   17.80
  -8  10   6    8.30   11.20
  -8  10  -6    2.70   10.40
  -1  11   6   14.60   16.10
   1  11  -6   16.00   14.60
   1 -11  -6   13.30   11.00
  -1  11  -6   23.10   13.40
  -1 -11  -6   11.30   10.10
  -1  11   6   17.20    7.70
  -1  11  -6   19.40    9.00
   1  11  -6   13.30   12.50
  -1 -11   6   13.80    8.60
   1 -11  -6   15.70    8.70
   1 -11   6   13.70    9.00
   2  11  -6  115.99   15.60
  -2 -11   6  109.19   11.80
   2  11  -6  119.69   16.80
   2 -11  -6  117.69    9.90
  -2  11   6  107.39   14.50
  -2  11  -6  129.39   13.60
  -2  11  -6  110.99    9.20
  -2 -11  -6  110.59   11.80
  -2  11   6  121.39    9.30
  -3  11   6   83.69   15.30
   3  11  -6   93.89   21.20
   3  11  -6   91.19   21.60
   3 -11  -6   91.69   10.40
  -3  11  -6  106.29   14.30
  -3  11  -6   93.29    8.80
  -3 -11   6   93.59   11.60
  -3 -11  -6   88.99   11.60
  -3  11   6   96.59    8.50
  -4  11   6  277.17    8.50
   4 -11  -6  285.67   10.40
  -4  11   6  286.37   18.20
  -4 -11  -6  322.97   10.60
  -4  11  -6  289.17    7.90
  -4 -11   6  296.37   10.10
  -5  11   6  252.87   17.50
  -5 -11   6  275.07   10.10
  -5 -11  -6  278.97   10.40
  -5  11   6  259.07    8.70
  -5  11  -6  263.37    8.20
  -6 -11   6  231.68   10.10
  -6  11   6  239.98   18.20
  -6 -11  -6  225.58   10.80
  -6  11   6  214.08    8.60
  -6  11  -6  211.08    8.30
  -7 -11  -6  163.38   11.40
  -7 -11   6  189.18   10.00
  -7  11   6  166.38    9.10
  -7  11   6  231.18   18.90
   7 -11  -6  209.58   12.20
  -7  11  -6  194.28   18.40
  -7  11  -6  181.48   11.00
   8 -11  -6  150.38   14.50
  -8  11  -6  149.69   19.70
  -8 -11   6   98.09   11.50
  -8  11   6  124.89   10.30
  -8 -11  -6   78.39   14.30
  -8  11  -6   87.59   11.80
   0 -12  -6   42.90   11.90
   0  12  -6   52.19   10.20
   0  12  -6   47.30   13.50
   0  12  -6   49.99   12.10
   0 -12  -6   41.20    9.60
   0  12   6   46.70   17.20
   0 -12   6   37.40   10.20
   1 -12  -6  122.19   11.60
  -1  12  -6  122.09   12.70
   1 -12   6  126.09    9.70
   1  12  -6  122.79   14.40
   1  12  -6  129.19   15.20
  -1  12  -6  138.29    9.80
  -1  12   6  136.29   16.00
  -1  12   6  125.49   10.00
  -1 -12   6  115.59   11.00
  -1 -12  -6  110.29    9.00
   1 -12  -6  115.19    9.30
  -2 -12   6   -4.10   10.80
   2 -12  -6    1.80    9.90
  -2  12   6    6.10    9.00
  -2  12  -6    2.00   12.70
  -2  12   6   10.60   16.60
   2  12  -6    3.00   18.70
  -2  12  -6   10.30    8.60
  -2 -12  -6    6.10   11.10
   2  12  -6    3.00   17.90
  -3  12   6   16.80   15.20
  -3  12  -6   10.90    7.10
  -3 -12   6   12.80    9.60
  -3 -12  -6    8.30    9.10
  -3  12   6   11.30    7.60
  -4  12   6   52.19   16.90
  -4  12  -6   56.79    7.50
  -4 -12  -6   72.79   11.80
  -4 -12   6   70.39   11.10
  -4  12   6   67.89    7.60
  -5  12   6  153.58   10.10
  -5  12   6  146.59   18.20
  -5  12  -6  122.79    7.90
  -5 -12   6  158.18   11.60
  -5 -12  -6  147.69   12.10
   5 -12  -6  148.09   10.30
  -6 -12  -6    4.40   10.10
  -6 -12   6    6.00   11.50
   6 -12  -6   11.10   10.70
  -6  12  -6   11.20   16.90
  -6  12   6   17.00   18.50
  -6  12   6   14.80   10.20
  -6  12  -6   19.40    7.90
   7 -12  -6   86.49   14.80
  -7 -12   6   61.49   12.60
  -7 -12  -6   62.49   11.30
  -7  12   6   58.59   11.40
  -7  12  -6   80.89   19.50
  -7  12  -6   74.89    8.80
   1 -13  -6    0.90   11.20
   1  13  -6    8.90   16.10
  -1  13   6   12.80   10.20
   1  13  -6    6.30   15.80
  -1  13  -6    3.60    9.40
  -1 -13   6    5.90   10.80
  -1  13  -6   14.50   12.20
  -1 -13  -6   -0.70   10.50
   1 -13   6   -1.70    9.90
   1 -13  -6   -5.50    9.40
  -1  13   6    2.10   15.20
  -2 -13   6   90.59   11.60
  -2  13  -6   85.39   13.30
   2 -13  -6   79.29   12.40
   2  13  -6   86.59   24.70
  -2  13   6   90.49   14.60
  -2  13   6   93.59    9.90
  -2  13  -6   89.49    9.60
  -2 -13  -6   73.49   11.90
   2  13  -6   82.39   24.60
   3 -13  -6  456.45   12.50
  -3 -13  -6  471.45   13.30
  -3  13  -6  456.75   10.80
  -3  13   6  482.05   19.50
  -3  13   6  467.35   11.10
  -3 -13   6  504.95   12.90
  -4 -13  -6  431.66   13.30
  -4  13  -6  416.46   10.50
  -4 -13   6  416.46   12.70
   4 -13  -6  387.66   12.60
  -4  13   6  409.36   18.30
  -4  13   6  407.76   11.00
  -4  13  -6  464.65   14.80
   5 -13  -6  142.89   13.00
  -5  13   6  139.59   10.70
  -5 -13   6  164.28   12.00
  -5  13  -6  142.69   10.30
  -5 -13  -6  152.38   12.30
   6 -13  -6  136.59   11.50
  -6  13   6  158.08   16.50
  -6  13  -6  154.38   18.40
  -6 -13  -6  105.79   13.60
  -6  13   6  118.19   11.50
  -6  13  -6  107.39   11.20
  -6 -13   6  127.69   11.80
  -7  13   6  204.98   18.20
  -7  13  -6   98.19   12.60
   7 -13  -6  216.48   13.10
  -7 -13   6  103.39   13.40
  -7 -13  -6   83.59   14.50
  -7  13  -6  199.88   17.60
  -7  13   6   93.29   12.80
   0  14  -6   17.90   12.90
   0  14   6   19.80   19.40
   0  14  -6   21.90   15.70
   0 -14  -6   20.00    8.50
   0 -14   6   16.00    8.80
   1 -14  -6   49.20   13.00
   1  14  -6   57.89   17.60
  -1  14   6   55.99    9.00
  -1 -14  -6   52.19    9.10
  -1  14   6   49.90   17.40
  -1  14  -6   41.60    8.60
   1 -14   6   49.20   10.40
   1  14  -6   49.80   17.30
  -1  14  -6   61.79   12.60
  -1 -14   6   51.99   11.40
   1 -14  -6   52.69    7.90
  -2 -14  -6   14.30   11.80
  -2  14  -6   12.00    9.70
  -2  14  -6   11.80   13.30
   2 -14  -6   10.20   11.90
  -2 -14   6   14.40   12.00
  -2  14   6    7.60   10.30
  -2  14   6    9.60   16.40
  -3 -14   6  106.39   12.40
   3 -14  -6   94.89   11.50
  -3  14   6  112.49   16.40
  -3 -14  -6  112.19   12.30
  -3  14   6   99.39   10.40
  -3  14  -6  110.59   14.60
  -3  14  -6   97.49    9.90
   4 -14  -6   11.40   11.70
  -4  14  -6   -1.60    7.60
  -4  14   6   12.30   16.80
  -4 -14   6   13.00   11.90
  -4  14   6    8.40   10.40
  -4 -14  -6    0.20   12.00
  -4  14  -6   16.40   12.40
   5 -14  -6   14.40   12.60
  -5  14   6    0.30   18.20
  -5  14   6    0.40    8.60
  -5 -14   6    1.60    9.40
  -5 -14  -6   -4.60   10.50
  -5  14  -6    4.20   17.40
  -5  14  -6    7.10    8.60
   6 -14  -6    2.00   11.00
  -6  14  -6    2.70   16.10
  -6  14  -6    1.70    9.10
  -6 -14  -6   16.10   10.10
  -6  14   6    6.60    9.60
  -6 -14   6   13.90   10.10
  -1  15  -6  158.08   11.10
  -1  15   6  174.68    9.80
  -1  15  -6  162.68   16.10
  -1  15  -6  165.18   14.40
   1  15  -6  161.18   22.30
   1  15  -6  150.48   22.80
  -1 -15  -6  148.89    9.90
  -1 -15   6  150.98   10.20
  -1  15   6  176.38   19.50
   2 -15  -6  196.68   13.30
  -2  15   6  216.78    9.80
  -2 -15   6  228.48   10.70
  -2  15  -6  228.38   16.60
  -2 -15  -6  213.38   11.00
  -2  15  -6  223.88    9.10
  -3  15  -6   36.60   14.90
   3 -15  -6   33.90   11.60
  -3 -15  -6   30.70   12.10
  -3  15   6   35.20   11.20
  -3  15  -6   26.90   10.40
  -3 -15   6   29.80   12.40
  -3  15   6   30.80   18.60
  -4 -15  -6   97.19   10.80
   4 -15  -6   91.69   12.50
  -4 -15   6   99.69   10.10
  -4  15   6   91.99    9.20
  -4  15  -6   91.79   16.20
  -4  15  -6  102.79    9.30
  -5  15  -6  345.07   19.70
   5 -15  -6  351.76   14.90
  -5 -15  -6  280.47   14.40
  -5 -15   6  339.77   14.20
  -5  15  -6  246.48   12.50
  -5  15   6  291.27   13.20
  -6  15  -6  156.58   13.40
  -6 -15   6  193.28   14.10
  -6  15   6  116.39   14.10
  -6  15  -6  309.27   21.70
   6 -15  -6  303.97   16.20
  -6 -15  -6  167.18   14.80
   0 -16   6   57.59   12.30
   0  16  -6   58.99   18.70
   0 -16  -6   55.99    9.70
   0  16  -6   57.19   18.60
  -1  16   6   78.19   20.20
  -1 -16   6   58.79   12.70
  -1  16  -6   76.59   14.10
  -1  16  -6   63.79   17.40
  -1 -16  -6   83.39   12.30
  -2 -16   6   16.30   12.60
  -2  16  -6   17.40   11.90
  -2  16   6   14.00   11.90
  -2  16   6   19.10   18.00
  -2  16  -6   14.60   14.00
  -2 -16  -6   11.90   12.80
   3 -16  -6   14.00   12.20
  -3  16   6   18.80   11.40
  -3  16  -6    7.80   11.50
  -3 -16   6   18.70   12.30
  -3  16  -6   13.60   17.80
  -3 -16  -6   29.50   13.00
   4 -16  -6   25.60   13.10
  -4 -16   6   42.40   10.10
  -4  16  -6   25.90   11.50
  -4 -16  -6   21.50   13.70
  -4  16  -6   23.70   16.80
  -4  16   6   33.50    9.90
  -5 -16  -6    5.90   14.00
   5 -16  -6   16.00   14.00
  -5  16  -6    7.50   10.20
  -5  16  -6    7.90   18.10
  -5 -16   6   11.90   13.20
  -5  16   6    8.80   12.80
  -1 -17   6    2.60   13.00
  -1  17   6    2.30   23.60
  -1  17  -6    2.60   18.10
  -1  17  -6   -8.00   17.00
  -1 -17  -6   -2.90   13.20
  -2 -17  -6   10.20   13.20
  -2  17  -6   15.90   15.40
  -2  17  -6   14.90   12.30
  -2  17   6   14.50   10.30
  -2  17   6   14.60   21.10
  -2 -17   6   15.80   10.40
  -2  17  -6   11.90   14.80
  -3  17   6   84.49   13.60
  -3  17   6   83.59   20.40
  -3 -17   6   78.79   14.00
  -3  17  -6   97.89   12.60
  -3  17  -6   95.79   16.40
  -3 -17  -6   75.99   14.00
   4 -17  -6  239.38   16.90
  -4  17   6  249.97   22.50
  -4 -17   6  187.58   14.30
  -4 -17  -6  179.48   15.40
  -4  17  -6  228.58   18.70
  -4  17   6  197.78   14.20
  -4  17  -6  164.78   14.10
   0 -18  -6   11.10   10.70
   0 -18   6   -1.00   14.20
  -1  18  -6   29.50   19.30
  -1  18  -6   39.70   18.80
  -1 -18   6   32.60   11.40
  -1 -18  -6   21.50   11.60
  -2  18   6   19.90   24.30
  -2  18  -6   -6.10   11.50
  -2 -18   6    5.00   13.70
  -2  18  -6   15.90   18.70
  -2  18  -6   18.90   18.10
  -2 -18  -6   20.10   11.30
  -1   1   7 1075.69   19.40
  -1  -1  -7 1019.20   20.20
   1   1  -7 1083.39   20.30
  -1  -1   7 1084.09   20.10
   1  -1  -7 1113.89   19.90
  -2  -1   7   26.60   13.70
   2   1  -7   28.10   11.90
   2  -1  -7   28.20   15.20
  -2   1   7   25.30   14.20
  -2   1  -7   24.90   10.80
  -3  -1   7  904.51   15.00
  -3   1  -7  932.31   14.60
  -3  -1  -7  960.50   14.80
  -3   1   7  932.01   18.40
   3   1  -7  878.51   18.30
   3  -1  -7  876.71   19.50
  -4  -1  -7   74.69    8.60
  -4   1  -7   66.19    8.50
  -4   1   7   80.59   12.30
  -4  -1   7   73.39    9.90
   4  -1  -7   71.29   11.90
   4   1  -7   62.39   11.60
  -5   1  -7  707.23   12.20
  -5   1   7  685.23   13.00
  -5  -1   7  711.23   14.70
   5   1  -7  684.33   16.60
  -5  -1  -7  731.23   12.90
   5  -1  -7  660.43   15.60
  -6  -1  -7   40.60   10.50
  -6   1   7   47.00   12.30
  -6   1  -7   54.29   10.70
  -6  -1   7   39.70   11.10
   6   1  -7   42.30   13.90
   6  -1  -7   42.00   12.90
  -7   1   7   12.20   12.50
  -7  -1   7   13.90   12.10
  -7  -1  -7    5.10   11.10
   8  -1  -7   28.10   12.40
  -8  -1   7   30.90   13.10
  -8   1   7   28.90   13.60
  -8  -1  -7   24.60   12.60
  -9   1  -7   30.60   14.30
  -9  -1  -7   24.40   13.60
  -9  -1   7   36.60   14.30
   9  -1  -7   28.10   15.90
   9   1  -7   25.40   15.10
 -10  -1  -7   14.30   16.00
  10   1  -7   -0.70   16.80
 -10   1   7   14.60   17.00
  10  -1  -7    9.10   17.90
 -10  -1   7   19.80   16.40
 -10   1  -7   17.90   16.00
   0  -2   7  864.61   19.50
   0  -2  -7  877.01   19.00
   0   2  -7  809.12   15.40
   0  -2  -7  864.41   22.80
   0   2  -7  870.91   23.40
   0   2   7  767.02   19.30
   1   2  -7  425.46   16.70
  -1  -2   7  436.66   16.80
   1  -2  -7  441.76   18.00
  -1  -2  -7  423.06   17.70
  -1   2   7  454.45   13.80
  -1   2   7  449.06   19.60
  -1   2  -7  451.85   13.20
  -2   2   7  213.98   13.90
   2  -2  -7  204.08   13.20
  -2  -2   7  217.48   14.20
   2   2  -7  212.18   14.90
  -2   2  -7  212.38   12.10
   3   2  -7    5.30   13.60
  -3   2  -7    6.20   10.80
  -3  -2  -7    4.00   10.00
  -3   2   7    4.00   14.40
   3  -2  -7    1.30   11.80
  -3  -2   7    1.20   11.90
  -4   2  -7  202.48   11.20
  -4  -2  -7  201.78   10.50
  -4  -2   7  190.38   12.60
  -4   2   7  188.38   11.20
   4  -2  -7  173.88   14.00
   4   2  -7  176.58   14.10
   5  -2  -7    4.20   12.20
  -5   2   7    9.00    9.70
  -5  -2   7    3.90   10.50
  -5   2  -7    0.40    8.80
   5   2  -7    3.40   12.90
  -5  -2  -7    2.10    9.70
   6   2  -7   36.10   13.40
  -6   2   7   38.00   10.20
  -6  -2   7   38.00   11.10
  -6  -2  -7   36.10   10.40
  -7   2   7   13.70   10.40
   7  -2  -7   21.40   12.80
  -8  -2   7   21.10   13.00
  -8  -2  -7   17.70   14.30
  -8   2  -7   24.80   10.60
   8   2  -7   20.20   14.20
   9  -2  -7    4.40   13.10
  -9  -2  -7    8.60   13.60
  -9   2   7    6.70   11.90
   9   2  -7    6.90   14.70
  -9  -2   7   13.30   14.20
  -9   2  -7    9.10   14.60
 -10   2   7   59.19   14.50
  10  -2  -7   79.29   18.50
 -10  -2   7   62.89   16.50
  10   2  -7   76.59   16.30
 -10   2  -7   75.59   16.90
 -10  -2  -7   64.89   16.70
  -1  -3   7  517.45   14.90
   1  -3  -7  533.65   17.70
   1   3  -7  500.85   15.20
  -1  -3  -7  533.65   18.50
  -1  -3  -7  507.35   16.90
  -1   3   7  549.74   21.30
  -1  -3   7  497.45   18.60
  -1   3  -7  532.85   11.90
  -1   3   7  540.85   13.90
  -2   3   7   15.30    7.10
   2   3  -7   17.20   10.60
  -2   3  -7   12.30   11.30
  -2   3   7   14.80   13.70
   2  -3  -7   17.00   11.20
  -2  -3  -7   17.30   12.50
  -2  -3   7   17.00   12.80
  -3  -3   7 1350.86   18.50
   3   3  -7 1293.47   20.00
  -3   3  -7 1376.06   16.40
  -3   3   7 1388.86   18.40
   3  -3  -7 1322.97   19.00
  -3  -3  -7 1410.86   17.10
   4  -3  -7   31.60   11.10
  -4   3   7   16.40   12.90
  -4   3  -7   38.40   11.20
  -4  -3   7   26.70   11.00
   4   3  -7   26.10   12.70
  -4  -3  -7   61.09    9.90
   5   3  -7    8.20   13.00
  -5   3   7   16.00   12.50
  -5   3  -7    3.30   10.60
  -5  -3  -7    7.50   10.00
   5  -3  -7   14.20   13.70
  -5  -3   7   16.30   10.80
  -6  -3  -7   52.09   11.40
   6   3  -7   43.80   12.80
  -6  -3   7   52.09   11.10
  -6   3   7   41.90   13.00
  -7   3   7  261.57   11.80
   7   3  -7  259.47   14.40
  -7  -3   7  259.27   12.90
  -7  -3  -7  267.97   11.90
   8   3  -7   15.30   13.20
  -8  -3  -7    7.90   12.00
  -8   3   7   19.70   13.70
  -8  -3   7   17.70   12.50
   9   3  -7   72.19   14.80
  -9   3   7   82.69   12.90
  -9  -3   7   75.59   14.60
  -9   3  -7   98.09   15.10
   9  -3  -7   80.09   18.00
  -9  -3  -7   74.39   14.00
 -10  -3  -7   -6.90   18.40
  10   3  -7   -2.00   16.10
  10  -3  -7   -2.90   15.10
 -10  -3   7   -2.40   16.10
 -10   3  -7   17.30   16.90
   0   4  -7 2134.49   20.80
   0   4   7 2039.30   25.30
   0  -4  -7 2212.88   20.40
   0  -4  -7 2246.08   26.70
   0   4   7 2229.48   24.50
   0   4  -7 2233.88   22.00
   0  -4   7 2229.48   21.70
  -1  -4  -7    5.00   12.60
  -1   4   7    5.40   17.80
   1   4   7    1.00   13.10
   1   4  -7    4.10   11.60
   1  -4  -7    3.80   12.50
  -1   4  -7    3.80    7.90
  -1   4   7    7.50    8.40
  -1  -4   7    4.40   11.40
  -1  -4  -7    5.10   14.30
  -2   4  -7  288.17    9.10
  -2  -4  -7  289.47   16.90
  -2  -4   7  302.97   14.50
  -2   4   7  304.07   15.60
  -2   4  -7  298.07   12.70
   2   4  -7  296.37   14.30
   2  -4  -7  301.97   14.00
  -2   4   7  303.17    9.30
  -3   4  -7  136.69   10.90
  -3   4   7  141.99   15.60
  -3  -4   7  132.59   12.10
  -3  -4  -7  137.49   11.90
   3  -4  -7  123.39   10.50
  -3  -4  -7  145.29   14.90
   3   4  -7  133.19   13.20
  -4  -4  -7  435.46   13.60
  -4   4  -7  429.66   11.10
   4   4  -7  403.06   14.70
   4  -4  -7  411.46   12.20
  -4   4   7  422.86   13.10
  -4  -4   7  404.56   13.20
  -5   4  -7   10.90    9.00
  -5   4   7   15.90   12.60
  -5  -4  -7   13.30   10.90
   5  -4  -7   12.60   10.40
  -5  -4   7   16.50   10.60
   5   4  -7   15.10   12.20
  -6   4   7   14.60   12.70
  -6  -4   7   11.10   10.90
  -6  -4  -7   12.20   11.60
   6   4  -7    7.50   13.90
  -7  -4  -7   25.50   11.00
  -7  -4   7   25.20   11.60
  -7   4   7   29.90   11.20
   8   4  -7   80.79   14.00
  -8  -4   7   79.39   13.40
  -8  -4  -7   75.19   12.40
  -9   4  -7   39.00   12.60
   9  -4  -7   35.20   19.00
   9   4  -7   24.10   14.40
  -9  -4  -7   25.30   15.90
  -9   4   7   28.10   13.30
  -9  -4   7   30.60   14.30
  -1   5  -7    2.40   11.60
   1  -5  -7    3.20    7.60
  -1  -5  -7    6.60   15.00
  -1   5  -7    0.80    8.10
  -1   5   7    1.40    8.60
  -1  -5  -7    5.40   12.00
  -1  -5   7    2.80   10.80
  -1   5   7    7.30   18.10
   1   5   7    6.30   12.20
   1  -5  -7   -1.50   11.70
   1   5  -7    2.70   12.40
  -2   5   7    1.50    7.60
  -2   5  -7    2.50   11.30
  -2  -5  -7    3.30   14.30
  -2   5   7    3.90   17.60
  -2  -5   7   13.30   12.80
   2   5  -7   12.40   14.40
  -2  -5  -7    4.50   12.10
  -2   5  -7   -1.30    7.20
   2  -5  -7    6.10   11.60
  -2  -5   7   16.80   10.40
   3   5  -7  670.43   15.90
  -3  -5  -7  704.83   16.40
  -3   5  -7  694.73   13.80
  -3   5   7  721.03   18.50
  -3   5   7  681.63   10.30
  -3  -5  -7  709.03   20.30
   3  -5  -7  687.53   14.60
  -3  -5   7  687.13   16.30
  -3   5  -7  664.13    8.80
  -4   5   7   10.10   11.50
   4  -5  -7   12.60   12.60
  -4  -5   7   22.10   12.50
  -4  -5  -7   19.00   10.80
   4   5  -7   23.90   14.20
  -4   5  -7   22.80   11.50
  -5  -5   7  350.26   12.40
  -5  -5  -7  373.66   13.80
  -5   5   7  361.96   15.40
  -5   5  -7  398.46   11.40
   5  -5  -7  362.26   12.20
   5   5  -7  373.86   15.20
  -6   5   7    5.40   10.90
   6  -5  -7   11.10   11.20
   6   5  -7   -0.90   12.30
  -6  -5  -7    4.90   12.10
  -6  -5   7   -3.40   11.50
   7   5  -7  608.94   16.70
  -7   5   7  627.94   16.10
  -7   5  -7  641.44   13.00
   7  -5  -7  579.14   15.00
  -7  -5   7  605.84   14.60
  -7  -5  -7  623.34   15.50
  -8   5   7    7.40   12.20
   8   5  -7    2.80   13.00
  -8  -5  -7   -5.70   12.20
  -8  -5   7    2.80   12.90
  -9  -5   7   53.49   16.10
   9  -5  -7   52.89   19.80
  -9   5  -7   62.19   12.50
   9   5  -7   51.09   14.10
  -9  -5  -7   51.19   16.30
   0   6   7  294.17   12.00
   0   6   7  277.17   15.30
   0   6  -7  278.47   12.90
   0   6  -7  292.17   11.40
   0  -6  -7  277.07   10.20
   0  -6   7  277.37   10.60
   0  -6  -7  275.37   13.30
  -1   6  -7    6.60    8.40
  -1   6  -7    7.10   11.40
  -1  -6  -7    6.40   13.50
   1  -6  -7    6.40   11.20
   1   6   7    5.20   13.60
   1   6  -7    7.90   10.60
  -1  -6  -7    5.20   10.40
  -1   6   7    9.30    8.80
  -1  -6   7    4.90   10.60
  -1   6   7    9.10   18.80
   1  -6  -7    5.60    7.50
   1  -6   7    7.00    7.80
  -2   6  -7 1932.81   17.70
   2  -6  -7 1924.51   19.10
  -2  -6  -7 1959.40   19.60
  -2   6   7 1974.30   15.20
   2   6  -7 1949.10   21.70
  -2  -6  -7 2072.29   31.80
  -2  -6   7 1976.20   19.90
  -2   6  -7 1963.10   14.40
  -2   6   7 2033.40   27.00
  -3   6   7   36.10   12.70
  -3  -6  -7   29.00   13.90
  -3  -6   7   34.90   13.10
  -3  -6  -7   33.60   18.60
   3   6  -7   30.10   14.20
  -3   6   7   34.80    7.30
  -3   6  -7   31.20    5.80
  -3   6  -7   28.30    9.50
   3  -6  -7   33.00   11.70
  -4  -6  -7   77.49   15.60
  -4   6   7   56.99   14.30
  -4  -6  -7   74.89   12.80
   4   6  -7   77.39   14.10
  -4   6  -7   75.29    9.80
   4  -6  -7   65.59   11.80
  -4   6   7   64.79    6.30
  -4  -6   7   84.79   12.50
  -4   6  -7   69.69    7.60
  -5   6   7   30.50   11.70
  -5  -6   7   24.00   10.30
  -5   6  -7   25.90   12.30
   5  -6  -7   11.50   12.80
  -5  -6  -7   22.50   13.40
   5   6  -7   19.80   13.10
  -5   6   7   25.70    6.30
  -6   6   7   53.69   14.50
   6  -6  -7   51.39   11.20
  -6   6  -7   60.19   10.70
  -6  -6  -7   50.19   12.60
  -6  -6   7   49.70   11.10
   6   6  -7   49.30   13.50
  -7  -6   7   34.50   13.70
  -7   6   7   34.90   12.30
   7   6  -7   28.90   14.20
  -7  -6  -7   32.90   13.50
  -8  -6  -7   41.10   14.90
  -8  -6   7   39.90   14.70
   8  -6  -7   42.20   14.10
  -8   6  -7   38.20   11.60
   8   6  -7   45.40   14.90
  -9  -6   7   19.00   16.20
  -9   6   7   28.80   14.30
  -9  -6  -7   18.30   18.80
  -9   6  -7   18.20   16.10
   9  -6  -7   22.80   19.50
   9   6  -7   18.90   16.10
   1  -7  -7  545.35   10.30
   1   7  -7  529.85   14.90
  -1   7   7  575.94   20.60
   1   7   7  535.95   17.80
  -1   7  -7  526.65   14.40
  -1   7   7  557.54   11.30
   1  -7   7  548.25   10.80
   1  -7  -7  533.65   13.70
  -1  -7  -7  526.65   12.70
  -1  -7   7  525.75   13.20
  -1  -7  -7  536.15   18.00
  -1   7  -7  563.94   10.90
  -2  -7  -7    8.30   11.00
   2  -7  -7    5.80   10.30
  -2   7  -7    9.40   10.80
  -2   7   7    2.30   17.90
  -2   7  -7    3.40    7.50
  -2  -7   7   11.40   11.10
   2   7  -7    4.40   11.20
  -2   7   7    7.10    7.90
  -2  -7  -7    4.70   17.70
   3  -7  -7  197.78   11.80
   3   7  -7  188.88   15.00
  -3   7   7  188.68   16.80
  -3   7  -7  194.28   13.00
  -3  -7   7  200.88   14.40
  -3  -7   7  196.58    9.60
  -3  -7  -7  203.38   12.80
  -3   7  -7  188.48    8.00
  -3  -7  -7  198.48   16.70
  -3  -7  -7  204.88   20.40
  -3   7   7  183.08    7.10
  -4   7   7    8.70   14.50
  -4  -7  -7   12.60   15.90
  -4   7  -7   19.00    9.70
   4   7  -7   12.80   12.80
  -4   7  -7   13.30    5.80
  -4  -7  -7   18.80   17.80
  -4   7   7   17.60    7.80
  -4  -7   7   13.90   12.30
   5   7  -7  974.20   17.70
  -5   7   7  961.80   15.90
  -5   7   7  929.61   10.90
  -5   7  -7  915.11    9.60
   5  -7  -7  961.30   14.00
  -5   7  -7  982.90   13.90
  -5  -7  -7  965.50   21.50
  -5  -7  -7 1001.70   23.20
  -5  -7   7  964.00   16.80
  -6  -7  -7   25.90   17.40
  -6   7   7   35.90   14.60
   6   7  -7   25.10   13.40
  -6   7  -7   21.10    8.10
  -6  -7   7   33.80   12.30
  -6  -7  -7   25.90   15.50
  -6   7   7   28.30    8.40
  -7   7   7  289.17   13.30
   7   7  -7  267.77   15.00
  -7  -7  -7  262.87   17.10
  -7  -7   7  260.67   14.30
  -7   7   7  234.88   10.00
  -7   7  -7  238.38    9.30
   8  -7  -7   -8.00   16.10
  -8  -7  -7    7.70   16.70
  -8  -7   7    5.00   14.40
   8   7  -7    7.60   14.40
  -8   7  -7   -2.20   15.30
  -8   7   7    8.70   10.10
  -8   7  -7    6.80    9.70
  -9  -7   7  174.68   17.00
   9   7  -7  179.28   16.70
   9  -7  -7  170.28   16.40
  -9   7   7  110.99   10.40
  -9   7   7  178.88   14.90
  -9  -7  -7  180.08   21.30
  -9   7  -7  203.38   18.20
  -9   7  -7  103.99   10.10
   0   8   7 3142.99   31.30
   0   8  -7 3076.29   25.80
   0   8  -7 3093.99   23.30
   0   8   7 3207.88   19.80
   0  -8   7 2885.61   17.80
   0   8  -7 3160.18   19.50
   0  -8  -7 2989.50   25.50
   0  -8  -7 2972.60   18.00
   1   8   7   25.40   14.40
  -1   8  -7   21.90   11.40
  -1   8   7   23.90    8.40
  -1   8  -7   19.10    8.00
   1  -8  -7   20.30   10.20
  -1   8   7   14.60   16.40
  -1  -8   7   24.40   10.30
  -1  -8  -7   18.10    9.90
  -1  -8  -7   19.80   13.40
   1  -8   7   18.30    6.90
   1   8  -7   25.60   12.30
   1  -8  -7   25.50    7.80
  -2  -8   7   97.69   12.10
  -2  -8  -7   94.29   18.00
  -2  -8  -7   98.19   11.70
  -2   8  -7   96.79   12.00
   2  -8  -7   90.09   10.50
  -2   8   7  116.59   17.70
  -2   8  -7  111.39    8.50
  -2   8   7  103.69    8.70
  -2  -8  -7   95.19   18.70
   2   8  -7  106.89   13.60
  -3   8  -7   11.00   12.50
   3   8  -7    3.90   14.30
  -3   8   7    2.30   13.60
  -3  -8   7   -0.70   11.40
   3  -8  -7   -1.80   11.20
  -3  -8  -7    9.40    9.70
  -3   8   7    1.00    7.90
  -3   8  -7    2.00    7.80
  -4   8  -7  748.13    9.00
  -4   8  -7  787.12   13.70
  -4   8   7  696.13   15.30
   4  -8  -7  756.32   12.20
  -4  -8   7  802.32   12.90
  -4   8   7  754.42   10.30
   4   8  -7  766.12   19.00
  -4  -8   7  820.32   17.50
  -4  -8  -7  834.72   13.00
  -5  -8  -7   40.80   25.20
  -5  -8   7   42.00   12.20
  -5  -8  -7   42.40   22.90
   5   8  -7   44.70   13.10
  -5   8   7   38.40   15.20
  -5   8   7   41.10    6.60
  -5   8  -7   42.50    7.60
  -6  -8  -7   30.50   20.40
  -6   8  -7   31.30    6.90
  -6  -8  -7   35.10   20.00
  -6  -8   7   37.50   13.80
   6   8  -7   31.80   13.50
  -6   8   7   31.80    8.60
  -6   8   7   31.20   12.60
  -7   8  -7   22.10    8.70
  -7  -8   7   29.30   14.90
  -7  -8  -7   25.00   20.90
  -7   8   7   34.90   13.30
   7   8  -7   36.80   15.10
  -7  -8  -7   30.60   20.90
  -7   8   7   20.90    9.10
  -8   8  -7    6.60    9.70
  -8   8  -7   15.10   15.90
   8   8  -7    8.40   16.60
  -8   8   7    7.60   10.40
  -8   8   7    2.40   14.20
  -8  -8   7    4.20   14.80
   8  -8  -7   11.50   16.40
  -8  -8  -7   10.00   21.90
  -8  -8  -7    6.30   21.70
  -9  -8   7   -1.70   16.70
  -9   8  -7   13.90   17.70
  -9  -8  -7    6.60   26.00
   9   8  -7    0.20   18.70
   9  -8  -7   14.90   19.00
  -9   8   7   16.00   15.50
  -9  -8  -7    1.30   25.50
  -9   8   7   -2.80   12.20
  -9   8  -7   -4.00   11.20
   1   9  -7   18.80   12.90
  -1   9  -7   17.90   13.30
  -1   9   7    7.80    7.50
  -1  -9   7    5.50    8.60
  -1  -9  -7    6.50   13.90
   1  -9  -7   16.00   10.20
  -1   9   7    5.60   17.10
  -1   9  -7   12.80    8.70
   1   9  -7   18.50   12.20
  -1  -9  -7   16.90   10.30
   1   9   7   12.70   15.40
   1  -9  -7    6.80    8.20
   1  -9   7   13.90    8.80
  -2   9   7   39.50   15.90
   2   9  -7   38.60   14.50
  -2   9   7   31.00    7.00
  -2   9  -7   39.00   11.70
  -2  -9  -7   32.20   11.50
   2  -9  -7   34.10    9.90
  -2  -9   7   28.70    9.30
  -2   9  -7   31.10    8.50
  -3  -9  -7  395.86   12.60
  -3   9  -7  382.16    9.00
  -3  -9   7  407.46   10.80
  -3   9   7  376.36   17.90
   3  -9  -7  383.86   12.00
  -3   9  -7  379.86   11.80
  -3   9   7  380.86    8.20
   3   9  -7  387.16   17.40
   4   9  -7   73.19   14.30
  -4   9   7   73.59   16.50
  -4  -9  -7   80.89   12.30
   4  -9  -7   88.49   11.30
  -4   9   7   69.59    7.00
  -4   9  -7   85.49    8.10
  -4  -9   7   85.59   11.00
   5   9  -7  496.95   17.90
  -5  -9  -7  531.95   13.30
  -5   9   7  442.06   14.60
  -5   9  -7  442.36    9.30
  -5  -9   7  498.85   12.30
  -5   9   7  463.15    9.80
  -6   9   7   21.40   15.80
  -6   9  -7   14.60    8.30
   6  -9  -7   23.00   10.40
   6   9  -7   12.60   15.10
  -6  -9   7   27.50   14.70
  -6  -9   7   29.60   11.10
  -6   9  -7   34.80   12.10
  -6   9   7   25.90    8.80
   7   9  -7  258.47   17.20
  -7  -9   7  251.77   18.20
  -7   9   7  207.28   10.50
  -7   9   7  255.87   17.30
  -7   9  -7  199.78    8.70
  -8   9   7   27.70   14.70
   8   9  -7   15.80   16.20
  -8   9   7   16.20    9.10
   8  -9  -7   17.20   16.10
  -8  -9   7   12.40   18.50
  -8   9  -7   36.30   17.10
  -8   9  -7   15.20   10.40
   0  10  -7  229.08   13.80
   0 -10  -7  228.58   13.60
   0  10  -7  247.98   10.60
   0 -10   7  205.98   10.30
   0 -10  -7  220.08    8.30
   0  10   7  251.97   11.20
   0  10  -7  230.68   12.60
   0  10   7  245.88   17.50
   1  10  -7    4.70   11.80
  -1  10  -7    2.20   12.00
  -1 -10  -7    9.70   16.40
   1 -10   7    0.40    8.70
   1 -10  -7    8.80   10.70
   1  10   7    7.80   16.20
  -1 -10   7    4.90   10.40
  -1  10   7   12.20   15.10
   1  10  -7    9.70   11.80
  -1  10  -7    7.40    7.10
  -1 -10  -7    9.80    8.00
  -1  10   7    6.50    9.20
   1 -10  -7    4.60    8.20
   2  10  -7  940.31   18.30
  -2 -10   7  930.11   14.40
  -2  10  -7  994.60   16.90
  -2  10   7  958.80   21.80
   2 -10  -7  970.20   14.00
  -2  10  -7  945.21   10.30
  -2  10   7  984.70   11.90
  -2 -10  -7  904.61   12.60
   2  10  -7  983.90   20.80
   3  10  -7    3.60   13.90
  -3 -10   7   -5.60    9.50
  -3  10   7    2.30   17.00
   3 -10  -7    4.10   10.60
  -3  10  -7    3.60   10.50
  -3  10   7    3.30    7.00
  -3  10  -7   -1.40    8.20
  -3 -10  -7    8.00   11.60
   4  10  -7   32.90   15.60
  -4  10   7   24.10   17.50
  -4 -10  -7   36.80   11.40
  -4 -10   7   26.50    8.60
  -4  10   7   26.90    6.90
  -4  10  -7   28.40    8.00
  -5  10  -7    5.90    8.20
  -5  10   7   -3.40   16.40
   5  10  -7    3.40   17.40
  -5 -10  -7   16.80   11.10
  -5 -10   7    8.80   10.60
  -5  10   7   11.30    8.60
  -6 -10  -7   33.80   11.50
  -6  10   7   48.40   13.90
   6  10  -7   29.80   18.00
  -6 -10   7   30.00   10.90
  -6  10   7   30.80    9.30
  -6  10  -7   28.10    8.70
  -7 -10   7    1.10   11.80
   7  10  -7    3.50   18.50
   7 -10  -7    2.60   12.10
  -7  10   7    0.50   14.30
  -7 -10  -7    2.30   10.20
  -7  10   7   -4.70    8.60
  -7  10  -7   10.10    7.60
  -7  10  -7   -6.00   13.50
   8  10  -7   30.40   22.00
  -8 -10  -7   16.90   11.30
   8 -10  -7   36.80   13.10
  -8  10  -7   48.30   18.40
  -8 -10   7   25.50   10.90
  -8  10  -7   24.70    8.80
  -8  10   7   34.20    9.80
  -1  11  -7  134.59    9.50
  -1  11   7  126.39   14.10
  -1 -11  -7  116.89   18.90
   1  11  -7  121.89   14.00
  -1  11  -7  125.59   12.10
  -1  11   7  125.99    8.10
   1  11  -7  124.39   13.40
   1 -11   7  119.59    9.50
  -1 -11   7  106.69   10.90
  -1 -11  -7  108.99   10.70
   1 -11  -7  117.19   12.10
   1 -11  -7  114.99    8.80
  -2 -11   7   18.80   12.00
  -2  11  -7   14.70    8.80
   2  11  -7   20.30   15.20
   2 -11  -7   13.30   10.80
  -2  11  -7   18.50   12.60
  -2  11   7    6.80   14.40
  -2  11   7    8.20    9.40
  -2 -11  -7    3.80   11.50
   2  11  -7    9.90   15.40
  -3  11   7   82.99    9.20
   3  11  -7   84.39   17.10
  -3  11   7   85.29   16.30
  -3  11  -7   94.09   11.80
  -3 -11   7   94.79   11.40
  -3 -11  -7   79.09   11.60
  -3  11  -7   86.89    8.70
   3  11  -7   84.59   17.10
   4  11  -7    9.00   19.30
  -4  11   7   -3.00   17.50
   4 -11  -7   24.20   11.30
   4  11  -7   12.30   20.50
  -4 -11  -7    8.10   11.50
  -4  11   7    5.90    7.30
  -4  11  -7   16.80    8.50
  -4 -11   7    9.00    8.50
  -5  11   7  150.88    9.90
  -5  11   7  174.78   17.90
   5  11  -7  159.78   28.10
  -5  11  -7  155.68    9.20
  -5 -11  -7  170.68   12.50
  -5 -11   7  173.28   11.50
  -6 -11   7   56.59   11.20
  -6  11  -7   54.09    9.60
  -6 -11  -7   69.79   12.30
  -6  11   7   88.39   14.90
  -6  11   7   69.49   10.30
  -7  11  -7  165.68   18.70
  -7 -11  -7   93.49   13.20
   7 -11  -7  142.79   12.20
  -7  11   7  140.29   15.90
  -7  11   7  100.89   11.60
  -7  11  -7  100.79   10.30
  -7 -11   7  114.09   12.80
   8 -11  -7   -3.40   16.60
  -8 -11  -7    3.20   13.60
  -8  11  -7    6.20   15.50
  -8 -11   7    4.00   13.30
  -8  11   7    8.50   12.40
  -8  11  -7    1.10   11.20
   0 -12  -7   11.10   12.20
   0  12  -7   11.90   13.30
   0  12   7   11.10   17.00
   0 -12   7   16.60   10.20
   0  12  -7    8.60   12.20
   0 -12  -7   12.40    9.40
  -1 -12   7   -4.20    8.30
  -1  12  -7    1.20    7.60
  -1  12   7    3.70   15.30
   1 -12  -7    2.20   11.00
   1  12  -7    1.30   12.90
  -1  12  -7    1.60   13.80
   1  12  -7   11.40   12.70
  -1 -12  -7    6.30    8.30
  -1  12   7   -2.50    9.60
   1 -12  -7    4.00    8.80
   1 -12   7    7.10    9.40
  -2 -12  -7  428.46   12.60
  -2 -12   7  448.66   12.30
   2  12  -7  446.96   18.60
  -2  12  -7  441.66   14.70
  -2  12   7  447.56   18.50
  -2  12  -7  447.46   10.40
   2  12  -7  446.86   19.70
  -2  12   7  460.55   11.40
   3  12  -7    2.50   20.80
  -3  12   7   12.30   15.30
  -3 -12  -7   -7.50   11.40
  -3  12   7    3.70    7.30
  -3 -12   7    2.40    9.50
  -3  12  -7   11.90    8.70
   3  12  -7    3.10   20.80
  -4  12  -7    1.90    8.90
  -4  12   7    5.60   14.10
  -4  12   7    2.20    9.30
  -4 -12  -7    3.20   11.50
  -4  12  -7   20.50   15.40
  -4 -12   7   17.50   11.00
  -5 -12   7    2.30   11.00
   5 -12  -7   -0.60    9.60
  -5 -12  -7   15.10   12.10
  -5  12   7    6.90   14.40
  -5  12   7    6.70    9.50
  -5  12  -7    5.50    9.00
  -6 -12   7   25.20   11.70
   6 -12  -7   25.80   11.00
  -6  12   7    6.30   10.50
  -6 -12  -7   18.90   12.40
  -6  12  -7   37.60   17.30
  -6  12  -7   21.80   10.00
  -7 -12   7   -2.60   12.10
  -7 -12  -7    0.40   13.00
   7 -12  -7   22.30   14.50
  -7  12   7   10.40   11.60
  -7  12   7   11.80   16.40
  -7  12  -7    5.50   10.50
  -7  12  -7   -2.40   18.50
   1 -13  -7   45.00   11.00
   1  13  -7   42.60   15.00
   1  13  -7   48.00   14.80
  -1  13  -7   49.50   14.00
  -1  13  -7   50.29   10.10
  -1  13   7   45.10   10.30
   1 -13   7   49.99   10.20
  -1  13   7   51.89   15.30
  -1 -13  -7   44.90    8.90
  -1 -13   7   47.80   11.10
   1 -13  -7   48.00    9.40
  -2  13   7    9.40    9.70
   2 -13  -7    8.20   10.50
  -2 -13   7    9.80   11.30
  -2  13  -7    9.50    7.70
   2  13  -7    7.70   18.00
   2  13  -7    7.90   18.90
  -2  13  -7   11.50   13.10
  -2 -13  -7    6.30    8.90
  -2  13   7   10.80   14.70
   3 -13  -7  112.49   11.30
  -3  13   7  102.09   16.10
  -3 -13  -7  112.79   10.30
  -3  13   7  114.39   10.20
  -3 -13   7  109.99   12.50
  -3  13  -7  108.79   14.10
  -3  13  -7  106.29    8.10
  -4 -13  -7   12.30    9.90
   4 -13  -7   11.10    9.40
  -4  13  -7   13.00   15.50
  -4 -13   7   15.90    9.20
  -4  13  -7    7.90    7.80
  -4  13   7   19.60    8.20
  -4  13   7   16.30   17.00
  -5  13  -7   30.20    8.10
  -5 -13   7   26.70    9.40
  -5 -13  -7   32.30   10.20
   5 -13  -7   30.30   12.70
  -5  13   7   34.50   18.40
  -5  13  -7   33.20   13.10
  -5  13   7   26.00    8.60
  -6  13  -7   -2.00   18.50
  -6  13   7   26.40   20.20
   6 -13  -7    7.00   10.70
  -6  13  -7   11.30    8.50
  -6 -13   7   -0.60   10.00
  -6 -13  -7    8.80   10.30
  -6  13   7    8.50    9.30
   7 -13  -7   11.60   15.50
  -7 -13   7   13.90   10.70
  -7 -13  -7    3.00   11.00
  -7  13   7    8.80   10.30
  -7  13  -7   28.00   20.40
  -7  13  -7   10.20    9.40
   0  14  -7  383.36   16.40
   0 -14  -7  360.86   11.50
   0  14   7  380.46   22.10
   0  14  -7  370.26   16.30
   0 -14   7  336.37   12.20
  -1  14   7   21.00   11.20
   1 -14  -7   14.80   13.10
   1  14  -7   18.00   17.00
  -1  14  -7   11.20   12.90
  -1 -14  -7   12.00   11.00
  -1  14  -7   15.80   10.40
  -1  14  -7   18.80   14.50
  -1 -14   7   16.90   11.50
   1 -14  -7   12.50    9.80
   1  14  -7   11.40   15.50
  -1  14   7   12.10   17.30
  -2  14   7  157.48    9.20
   2  14  -7  150.58   29.50
  -2 -14   7  152.78   10.20
  -2  14   7  158.58   17.60
  -2  14  -7  159.98   13.50
   2 -14  -7  142.59   12.90
  -2  14  -7  155.68    9.10
  -2 -14  -7  153.78   10.40
   2  14  -7  154.18   28.90
   3 -14  -7    7.40   11.30
  -3 -14   7   11.40   12.00
  -3  14   7    6.10   10.40
  -3  14  -7    5.40   16.50
  -3  14   7   -3.80   15.50
  -3  14  -7    4.30    9.90
  -3 -14  -7    9.60   10.20
   4 -14  -7  176.48   14.20
  -4  14   7  197.58   11.00
  -4  14   7  186.88   18.00
  -4  14  -7  182.88   16.40
  -4  14  -7  161.28   10.60
  -4 -14  -7  170.28   13.20
  -4 -14   7  175.28   12.30
   5 -14  -7   10.90   12.70
  -5 -14   7   14.20   12.10
  -5  14   7   12.10   11.30
  -5  14   7   10.90   18.60
  -5  14  -7    8.30   10.50
  -5 -14  -7   16.60   12.60
  -5  14  -7    7.10   17.30
  -6 -14   7   35.20   12.50
   6 -14  -7   42.80   14.20
  -6  14  -7   15.70   11.60
  -6  14  -7   30.80   16.40
  -6 -14  -7   30.20   13.80
  -6  14   7   28.10   12.00
   1 -15  -7   48.70   14.00
  -1 -15   7   50.99   11.80
  -1  15   7   50.99   18.00
  -1  15  -7   56.79   15.00
  -1  15  -7   54.49    9.10
   1  15  -7   56.09   19.20
  -1  15   7   55.19   11.60
  -1  15  -7   55.59   13.50
  -1 -15  -7   49.90   11.80
   1  15  -7   53.59   20.30
  -2  15  -7   19.90   16.10
  -2  15   7    8.70   17.30
  -2 -15   7    8.00   12.10
   2 -15  -7    8.40   12.40
  -2 -15  -7   22.60   12.40
  -2  15   7   10.90   11.30
  -2  15  -7   13.90   10.70
  -3  15   7   32.40   11.20
  -3  15   7   26.50   16.60
  -3  15  -7   11.30   10.40
   3 -15  -7   25.30   13.70
  -3 -15   7   27.80   12.00
  -3  15  -7   30.50   14.90
  -3 -15  -7   26.30   12.40
   4 -15  -7   10.20   12.40
  -4  15  -7    8.60   15.60
  -4 -15  -7   10.50   12.80
  -4 -15   7   11.10   12.30
  -4  15   7    9.80   11.50
  -4  15  -7   -9.40   11.00
  -5  15   7   11.10    9.60
   5 -15  -7   26.30   13.50
  -5  15   7   16.20   19.30
  -5 -15   7   20.40   10.30
  -5  15  -7    6.70    9.60
  -5  15  -7   20.30   17.50
  -5 -15  -7    9.60   11.50
   6 -15  -7   -0.50   14.80
  -6  15  -7    7.80   10.00
  -6  15  -7    0.10   19.80
  -6 -15  -7    2.40   11.40
  -6 -15   7   -4.50   11.10
  -6  15   7   13.30   10.70
   0  16  -7  200.68   19.30
   0 -16   7  167.18   12.80
   0  16  -7  201.38   18.40
   0 -16  -7  181.38   12.10
  -1  16  -7    5.10   14.20
  -1  16   7    4.60   19.80
   1  16  -7    2.80   24.30
   1  16  -7    0.50   25.70
  -1  16  -7   -2.00   15.70
  -1 -16   7    7.50   10.40
  -1 -16  -7   -0.30    9.70
   2 -16  -7   25.80   13.60
  -2 -16  -7   31.90   13.10
  -2  16   7   33.80   12.30
  -2  16  -7   49.30   11.30
  -2  16  -7   37.80   14.40
  -2  16   7   33.60   18.30
  -2 -16   7   44.70   12.40
  -3  16   7   17.50   10.10
   3 -16  -7    7.20   14.10
  -3 -16   7   12.30   10.40
  -3  16  -7   23.30   15.30
  -3  16  -7   17.90   11.40
  -3 -16  -7    1.80   10.30
   4 -16  -7   73.29   13.50
  -4  16  -7   74.29   10.10
  -4  16   7   62.79   10.30
  -4  16  -7   83.19   17.20
  -4  16   7   92.49   18.70
  -4 -16   7   69.59   12.80
  -4 -16  -7   68.89   14.00
   5 -16  -7    1.50   14.10
  -5 -16   7    0.10   13.60
  -5  16   7    8.40   13.50
  -5 -16  -7   16.00   14.20
  -5  16  -7   13.80   18.10
  -5  16  -7    1.00   12.50
  -1 -17   7   57.09   13.40
  -1  17  -7   69.79   18.00
  -1  17  -7   50.49   17.00
  -1 -17  -7   43.10   13.20
  -1  17   7   57.29   23.90
  -2 -17  -7    3.70   11.20
  -2  17   7    3.70   13.10
  -2 -17   7   12.90   13.10
  -2  17  -7   -7.10   10.50
  -2  17  -7    8.70   16.80
  -2  17  -7    0.50   15.30
  -2  17   7   -3.90   19.40
  -3  17   7    5.30   10.80
  -3  17  -7   10.20   10.20
  -3 -17   7    6.80   11.00
  -3  17   7    0.30   20.20
   3 -17  -7    6.80   15.00
  -3  17  -7    1.60   18.70
  -3 -17  -7    1.30   11.20
   4 -17  -7    8.60   16.50
  -4  17   7    9.60   11.60
  -4 -17  -7    0.70   12.00
  -4 -17   7    7.30   11.30
  -4  17  -7   20.20   20.30
  -4  17  -7    0.60   10.60
  -4  17   7   12.70   19.00
   0  18  -7    7.30   28.50
   0 -18   7    1.10   11.30
   0  18  -7   12.80   28.60
   0 -18  -7   12.90   13.40
  -1 -18   7    4.60   14.00
  -1  18  -7    5.80   19.70
  -1 -18  -7   10.60   13.90
  -1  18  -7   -0.50   19.10
  -2  18   7   78.59   23.60
  -2  18  -7   82.39   18.20
  -2  18  -7  126.59   19.10
  -2 -18  -7   79.59   14.70
  -2 -18   7  108.89   15.10
   0   0  -8 1449.65   20.10
   0   0   8 1373.16   18.50
  -1   0   8  475.75   16.80
  -1   0  -8  470.35   13.30
   1   0  -8  462.75   14.50
   2   0  -8 1593.54   22.00
  -2   0   8 1631.74   19.80
  -3   0   8  134.29   11.00
  -3   0  -8  137.19   11.20
   3   0  -8  119.59   14.60
  -4   0   8 1217.48   17.10
   4   0  -8 1158.38   17.60
  -4   0  -8 1271.27   15.00
  -5   0   8   20.40   10.40
   5   0  -8   18.70   11.90
  -5   0  -8   16.50   10.30
   6   0  -8  100.99   14.90
  -6   0  -8  111.39   11.20
  -6   0   8  101.79   12.70
  -7   0  -8   17.60   11.40
   7   0  -8   16.10   14.60
  -7   0   8   33.90   12.50
  -8   0  -8    9.30   12.20
   9   0  -8   36.30   15.60
  -9   0  -8   23.50   13.80
  10   0  -8   16.60   17.60
 -10   0   8   25.60   16.50
 -10   0  -8    7.20   13.30
   1  -1  -8  254.37   13.90
  -1  -1   8  240.68   15.30
   1   1  -8  235.48   13.10
  -1  -1  -8  228.68   14.50
  -1   1   8  236.18   14.20
  -1   1  -8  238.48   13.00
  -1   1   8  247.68   14.10
  -2  -1   8  376.36   13.60
   2  -1  -8  350.66   14.60
   2   1  -8  360.56   16.40
  -2   1   8  360.06   14.10
   3   1  -8 1192.78   19.30
  -3   1  -8 1284.57   14.50
  -3  -1   8 1244.48   17.90
  -3   1   8 1258.17   18.80
  -3  -1  -8 1285.07   15.90
   3  -1  -8 1206.58   20.10
  -4  -1  -8  727.13   13.00
  -4  -1   8  724.43   14.50
   4  -1  -8  703.83   17.80
  -4   1   8  750.72   16.00
   4   1  -8  665.03   14.10
  -4   1  -8  759.92   11.90
  -5   1  -8 1136.99   13.60
  -5  -1  -8 1155.98   14.50
  -5  -1   8 1091.49   14.10
  -5   1   8 1127.79   16.60
   5  -1  -8 1108.29   19.30
   5   1  -8 1074.59   17.60
   6   1  -8  546.05   15.60
  -6  -1  -8  594.74   13.00
  -6   1   8  571.84   12.60
  -6  -1   8  576.84   13.70
  -6   1  -8  588.94   11.60
  -7  -1   8  864.01   13.70
  -7   1  -8  893.61   13.50
  -7   1   8  883.11   15.80
   7   1  -8  861.31   17.30
   7  -1  -8  835.72   15.70
  -7  -1  -8  920.41   14.20
   8   1  -8  282.37   15.80
   8  -1  -8  269.27   13.60
  -8   1   8  279.27   12.40
  -8  -1  -8  290.17   13.30
  -8   1  -8  289.87   13.40
  -8  -1   8  288.07   11.70
  -9  -1   8  408.66   13.20
   9  -1  -8  421.76   15.20
  -9   1  -8  420.16   15.40
  -9  -1  -8  436.36   15.60
   9   1  -8  414.66   16.60
  -9   1   8  441.86   14.00
  10   1  -8   43.30   16.80
  10  -1  -8   63.09   18.20
 -10   1  -8   34.20   16.50
 -10  -1  -8   46.40   16.60
 -10  -1   8   42.20   16.30
 -10   1   8   45.00   17.40
   0   2   8   13.50   13.90
   0   2  -8   12.70   12.10
   0  -2  -8   14.80   12.40
   0  -2  -8   10.80   15.90
   0  -2   8   12.40   12.40
   1   2  -8  277.07   14.60
  -1  -2   8  261.57   19.90
  -1   2   8  283.07   18.10
   1  -2  -8  289.67   14.80
  -1  -2   8  276.57   15.00
  -1  -2  -8  267.47   15.20
  -1   2   8  288.17   13.70
  -1   2  -8  277.47   11.70
   2  -2  -8  230.88   13.60
  -2  -2   8  243.88   14.50
   2   2  -8  232.58   14.80
  -2  -2  -8  216.38   13.40
  -2   2  -8  236.28   12.80
  -2   2   8  245.68   16.30
   3   2  -8  273.17   14.20
  -3   2  -8  278.17   11.90
   3  -2  -8  252.37   13.60
  -3  -2  -8  276.07   11.50
  -3   2   8  289.47   15.60
  -3  -2   8  272.37   11.50
  -4   2   8  331.27   12.20
   4  -2  -8  315.87   15.70
  -4  -2  -8  321.57   11.30
  -4   2  -8  327.27   11.90
   4   2  -8  296.57   13.90
  -4  -2   8  319.37   10.70
  -5   2   8   -2.40   11.90
  -5   2  -8    6.30   10.60
  -5  -2   8    9.00   11.00
   5  -2  -8    6.40   14.20
   5   2  -8    3.00   13.00
  -5  -2  -8    5.00    9.80
   6  -2  -8   31.60   12.80
  -6   2   8   29.20   10.40
   6   2  -8   23.40   10.50
  -6  -2   8   26.70    9.20
  -6  -2  -8   20.60   10.40
  -7   2   8    6.00   10.40
   7  -2  -8    9.70   12.60
  -7  -2  -8   11.40   11.10
   7   2  -8    8.60   13.80
  -8   2   8   14.80   13.80
  -8  -2   8    1.60   12.70
   8  -2  -8  -12.10   16.20
  -8   2  -8    4.90   10.70
   8   2  -8    6.70   14.00
  -8  -2  -8    0.80   12.50
  -9   2  -8   81.69   12.40
   9  -2  -8   60.79   16.30
   9   2  -8   80.69   15.20
  -9  -2   8   66.19   14.60
  -9  -2  -8   73.29   14.00
  10   2  -8   13.00   16.40
  10  -2  -8   16.20   14.90
 -10  -2   8    7.40   16.10
 -10   2  -8   -3.30   13.50
 -10   2   8    5.00   14.00
   1   3  -8  328.37   12.10
   1  -3  -8  343.97   14.10
  -1  -3   8  326.17   14.60
  -1   3   8  353.76   12.90
  -1  -3  -8  335.97   16.10
  -1   3  -8  343.87   11.60
  -1  -3   8  314.67   14.90
  -1   3   8  355.96   18.80
  -1  -3  -8  339.87   16.40
   2  -3  -8  202.48   12.70
   2   3  -8  191.78   13.60
  -2   3  -8  205.08   12.50
  -2  -3  -8  192.98   13.70
  -2   3   8  200.08   17.10
  -2  -3   8  208.58   11.60
  -2   3   8  203.08    8.50
  -2   3  -8  197.48    8.10
  -3  -3  -8  857.31   14.30
   3   3  -8  773.62   16.60
  -3  -3   8  785.72   15.60
  -3   3  -8  836.42   14.00
  -3   3   8  895.01   18.40
   3  -3  -8  826.12   16.90
   4  -3  -8  139.49   14.30
  -4   3   8  132.19   14.10
  -4  -3  -8  138.39   10.10
  -4   3  -8  138.79    9.40
  -4  -3   8  132.09   11.80
   4   3  -8  123.09   12.60
   5  -3  -8  692.13   14.50
  -5   3   8  762.82   13.50
  -5   3  -8  767.92   12.20
   5   3  -8  740.83   15.40
  -5  -3   8  737.93   13.90
  -5  -3  -8  783.92   13.60
   6   3  -8  457.25   14.60
  -6   3  -8  465.75   11.60
  -6  -3   8  450.95   12.70
  -6  -3  -8  466.45   12.40
  -6   3   8  463.55   14.60
  -7   3   8 1130.79   16.80
   7  -3  -8 1102.09   17.10
   7   3  -8 1116.19   17.50
  -7  -3  -8 1170.68   15.30
  -7  -3   8 1100.69   15.40
  -8   3  -8   89.89   13.40
  -8  -3   8   79.39   12.80
  -8  -3  -8   99.39   14.40
   8  -3  -8   80.49   16.80
  -8   3   8   85.09   11.70
   8   3  -8   80.49   13.70
   9  -3  -8  102.89   14.70
  -9   3  -8  120.49   15.60
  -9  -3   8  109.39   14.30
   9   3  -8  104.39   15.00
  -9  -3  -8  109.69   14.30
   0   4   8   18.60   13.00
   0   4   8   16.00   13.20
   0  -4  -8   20.80   14.60
   0   4  -8   20.10   10.90
   0   4  -8   17.00   11.50
   0  -4  -8   14.70    9.80
   0  -4   8   13.00   10.40
   1   4   8  197.28   12.30
  -1  -4  -8  223.98   17.30
   1   4  -8  202.88   12.80
  -1   4   8  219.28   18.80
  -1   4  -8  204.78   10.40
  -1  -4   8  190.78   14.10
  -1   4   8  218.98   11.60
   1  -4  -8  208.78   14.50
  -1  -4  -8  204.18   13.50
  -2   4  -8   10.30   11.20
  -2   4  -8    9.10    7.50
  -2  -4   8   10.70   12.60
   2  -4  -8   13.90   12.80
  -2   4   8   13.90   16.80
   2   4  -8    9.70   12.30
  -2  -4  -8   10.50   12.80
  -2   4   8   11.90    7.90
  -3  -4  -8   58.79    9.80
  -3   4  -8   49.30   10.60
  -3   4   8   68.79   12.30
   3   4  -8   57.99   12.40
   3  -4  -8   63.49   10.90
  -3  -4   8   52.59   13.10
  -3  -4  -8   66.79   14.20
  -3   4   8   52.89    7.60
  -4  -4   8   59.99   11.20
  -4   4  -8   60.29    9.30
  -4  -4  -8   58.19   11.50
  -4   4   8   66.99   12.10
   4   4  -8   56.69   12.40
   4  -4  -8   56.89   11.10
  -5  -4   8   29.00   10.80
   5  -4  -8   23.40   13.30
  -5   4   8   40.40   13.20
  -5  -4  -8   37.20   10.90
   5   4  -8   34.50   12.40
   6  -4  -8    2.80   11.70
  -6  -4  -8   13.40   10.30
  -6   4   8    5.00   13.20
  -6  -4   8   12.70   10.30
   6   4  -8    8.40   12.40
  -7  -4   8   19.90   11.60
  -7  -4  -8    2.30   10.90
  -7   4   8   21.20   13.80
   7   4  -8   11.90   12.90
  -8   4  -8   43.20   13.80
  -8   4   8   34.60   12.20
   8   4  -8   44.90   13.60
   8  -4  -8   50.59   17.60
  -8  -4  -8   33.80   14.40
  -8  -4   8   32.20   13.10
   9  -4  -8    7.40   15.30
   9   4  -8    9.80   14.20
  -9  -4  -8   13.70   16.10
  -9  -4   8   19.00   16.50
  -9   4  -8    8.00   15.30
  -1   5   8  208.78   11.30
   1   5   8  202.08   13.90
   1   5  -8  212.38   12.50
  -1  -5  -8  211.88   16.60
  -1  -5  -8  187.48   11.90
  -1  -5   8  271.37   13.00
  -1   5   8  217.28   18.50
   1  -5  -8  189.78   13.20
  -1   5  -8  199.08    9.50
  -2  -5  -8   17.70   12.20
  -2  -5   8   20.40   11.80
  -2   5  -8   27.10   11.60
  -2  -5  -8   13.80   14.60
  -2   5   8    9.20   14.80
  -2  -5   8   13.70   12.00
  -2   5  -8   41.20    7.70
   2   5  -8   14.40   12.10
   2  -5  -8   13.80   12.30
  -2   5   8   17.80    8.10
  -3   5  -8 1190.98   14.30
  -3  -5  -8 1211.68   17.60
  -3  -5   8 1178.98   18.10
   3   5  -8 1174.38   19.10
  -3   5   8 1273.77   21.30
  -3  -5  -8 1228.88   21.30
  -3   5  -8 1157.28   11.30
   3  -5  -8 1184.58   16.80
  -3   5   8 1188.18   11.90
  -4   5   8  210.38   12.90
  -4  -5  -8  210.68   12.30
   4   5  -8  186.38   12.90
  -4  -5   8  196.48   11.60
  -4  -5  -8  212.88   16.90
   4  -5  -8  197.08   11.30
  -4   5   8  195.18    7.80
   5   5  -8  279.17   13.30
  -5  -5   8  264.17   11.50
  -5   5   8  279.27   12.60
  -5   5  -8  287.27   10.80
  -5  -5  -8  294.47   13.90
   6   5  -8   16.40   12.10
  -6  -5   8   14.80   11.20
  -6   5   8    6.10   11.70
   6  -5  -8   20.10   11.70
  -6   5  -8   10.80    9.90
  -6  -5  -8   17.30   12.00
  -7   5   8  582.64   14.00
   7  -5  -8  574.54   15.20
   7   5  -8  577.34   14.80
  -7  -5   8  568.84   15.60
  -7  -5  -8  585.14   15.60
  -8  -5   8  146.99   15.10
   8  -5  -8  115.29   14.40
  -8   5   8  139.79   15.60
   8   5  -8  133.49   15.40
  -8   5  -8  135.69   12.30
  -8  -5  -8  132.09   15.10
  -9  -5  -8  207.88   17.30
  -9  -5   8  222.28   17.50
   9   5  -8  194.18   15.30
   9  -5  -8  221.98   15.80
  -9   5  -8  267.47   16.10
   0   6   8   14.50   11.10
   0  -6  -8   16.20   13.00
   0  -6   8   21.50   10.90
   0   6  -8   22.60   10.60
   0   6  -8   15.70    9.70
   0  -6  -8   17.40    9.00
   0   6   8   15.60   15.30
  -1   6  -8   14.60    8.40
  -1   6  -8   18.50   11.60
   1  -6  -8   19.40   11.50
  -1   6   8   15.10   17.20
  -1   6   8   12.30    9.00
  -1  -6  -8   13.20   13.90
   1   6   8   14.20   13.10
  -1  -6   8    9.50   11.00
   1   6  -8   15.20   10.80
  -1  -6  -8   14.70   10.50
   1  -6  -8   13.00    7.80
  -2  -6  -8  927.11   22.40
  -2   6  -8  876.21   13.20
  -2   6   8  902.31   11.80
  -2   6   8  928.81   20.20
  -2  -6  -8  856.31   15.80
  -2  -6   8  888.31   15.70
   2  -6  -8  865.71   15.20
  -2   6  -8  877.41   10.40
   2   6  -8  871.21   16.60
  -3  -6   8    2.90   12.90
  -3  -6   8    0.20    8.60
  -3  -6  -8    2.90   11.80
   3   6  -8    4.10   13.60
  -3   6  -8   -0.10   11.50
  -3  -6  -8    1.50   15.90
  -3   6   8    9.40   13.20
   3  -6  -8   11.20   11.70
  -3   6   8    5.70    7.30
  -3   6  -8    4.80    6.90
  -4  -6   8    6.30   12.00
  -4   6  -8    9.70    7.40
   4  -6  -8   17.40    9.60
  -4   6   8    6.90   14.60
  -4  -6  -8   19.20   12.10
  -4  -6  -8   14.90   15.00
   4   6  -8   13.50   11.40
  -4   6   8    9.90    7.50
  -5  -6   8    7.30   12.40
  -5   6  -8    5.60    9.80
  -5   6   8   15.80   14.70
   5  -6  -8    6.50   10.60
  -5  -6  -8    6.90   11.70
  -5   6  -8    5.20    7.30
   5   6  -8    5.50   12.40
  -5  -6  -8   -0.20   16.10
  -5   6   8    6.40    7.70
  -6   6  -8   72.89   10.60
   6   6  -8   61.89   11.70
  -6   6   8   87.99   15.10
  -6  -6   8   71.79   12.90
   6  -6  -8   73.09   11.80
  -6  -6  -8   67.79   14.10
  -7  -6   8    5.00   11.60
   7   6  -8    7.40   12.10
  -7   6   8   -1.70   14.60
  -7  -6  -8   -1.70   12.90
  -8  -6   8   16.30   14.80
  -8   6   8   34.50   13.50
  -8   6  -8   33.10   15.20
   8  -6  -8   44.80   17.70
   8   6  -8   29.00   15.10
  -8  -6  -8   29.60   14.60
   9   6  -8    7.90   13.70
   9  -6  -8    8.50   15.90
  -9  -6  -8   -0.30   17.10
  -9  -6   8    4.10   15.90
  -9   6  -8    9.20   16.50
  -1  -7  -8 1694.93   23.40
   1   7   8 1699.13   23.60
  -1   7   8 1781.72   15.90
   1  -7   8 1726.03   14.90
   1   7  -8 1648.54   18.60
  -1   7   8 1787.02   25.10
  -1   7  -8 1747.93   15.10
   1  -7  -8 1649.13   18.20
  -1  -7   8 1632.94   17.40
  -1  -7  -8 1671.83   16.90
  -1   7  -8 1682.53   18.30
   1  -7  -8 1697.03   14.40
   2   7  -8   23.10   11.70
  -2  -7  -8   24.20   17.10
  -2   7  -8   18.20   11.00
  -2   7   8   29.30   17.90
  -2   7  -8   19.60    7.50
   2  -7  -8   18.90   10.40
  -2  -7  -8   19.50   10.50
  -2  -7   8   21.20   10.90
  -2   7   8   20.90    8.00
  -3  -7   8   46.30   11.00
  -3  -7  -8   44.20   13.70
  -3   7  -8   38.90    9.90
  -3   7   8   48.10   16.70
   3   7  -8   42.40   13.70
  -3  -7  -8   43.70   11.40
   3  -7  -8   42.00   11.40
  -3  -7   8   43.90   12.80
  -3   7   8   47.00    8.10
  -3   7  -8   41.10    7.50
  -3  -7  -8   47.10   16.40
  -4  -7  -8    1.20   13.10
  -4   7   8    9.90   15.30
  -4  -7  -8    3.20   16.00
  -4   7  -8    5.30    5.80
  -4  -7   8   -2.10   11.70
  -4   7   8   -3.30    7.30
   4   7  -8    3.20   12.40
  -5   7  -8  698.23    9.10
  -5  -7   8  764.02   15.90
  -5   7   8  766.82   17.80
   5  -7  -8  760.82   13.30
  -5  -7  -8  796.12   21.70
  -5  -7  -8  777.02   19.20
   5   7  -8  770.42   16.90
  -5   7   8  743.83   10.60
  -6  -7  -8  100.29   17.70
  -6   7   8   83.19    8.90
  -6   7   8  101.89   15.60
  -6   7  -8   77.99    8.30
   6   7  -8   93.59   14.40
  -6  -7   8   79.29   12.60
  -6  -7  -8   89.39   14.40
  -7  -7  -8   30.60   16.80
  -7  -7   8   31.60   13.30
  -7   7   8   25.60   15.90
  -7  -7  -8   29.80   15.30
  -7   7  -8   26.60    8.50
  -7   7   8   27.80    9.30
   7   7  -8   30.20   13.90
  -8  -7  -8    3.20   16.50
  -8  -7  -8    4.30   17.60
   8  -7  -8   -0.40   14.10
   8   7  -8    3.80   15.00
  -8   7   8   -1.20   14.00
  -8  -7   8    2.20   14.60
  -8   7   8    9.30    8.40
  -8   7  -8   14.30   12.40
  -8   7  -8   -7.10    8.00
   9   7  -8   65.09   17.00
  -9   7  -8   70.59   14.60
   9  -7  -8   67.89   20.10
  -9   7   8   72.19   15.20
  -9   7   8  -14.70   12.30
  -9  -7   8   58.09   16.60
  -9  -7  -8   74.19   22.50
  -9  -7  -8   67.39   20.40
  -9   7  -8   36.70   11.40
   0   8  -8 1486.85   18.70
   0   8   8 1498.65   23.30
   0   8  -8 1535.45   15.20
   0   8   8 1605.74   16.80
   0  -8  -8 1464.25   19.40
   0  -8  -8 1457.75   14.00
   0  -8   8 1427.56   14.80
   0   8  -8 1494.75   16.90
  -1   8  -8   94.89   11.40
   1   8  -8   93.59   12.90
   1   8   8   95.19   14.30
  -1  -8  -8  102.39   10.20
  -1   8  -8   97.29    8.80
   1  -8  -8   92.29   12.80
  -1   8   8   93.59   19.20
  -1  -8   8  100.19   10.60
  -1  -8  -8   92.19   13.80
   1  -8  -8   88.79    8.00
  -1   8   8  100.29    9.20
   1  -8   8   97.09    8.70
  -2   8  -8   46.40   11.90
  -2  -8  -8   55.29   11.00
  -2   8  -8   54.89    8.10
  -2   8   8   55.19   18.40
   2  -8  -8   46.50   10.20
  -2  -8   8   54.29   11.00
  -2   8   8   52.99    8.40
   2   8  -8   51.39   13.50
  -2  -8  -8   48.00   16.40
  -3  -8   8    9.80    8.70
  -3  -8  -8   12.00   22.20
  -3   8   8   12.30    6.30
   3  -8  -8   16.00   11.00
   3   8  -8   12.00   12.90
  -3   8  -8   16.00   11.80
  -3  -8  -8   12.60   18.80
  -3  -8  -8    9.10   11.50
  -3   8   8   13.60   13.90
  -3   8  -8   12.60    7.40
  -4   8   8  431.16    9.60
  -4  -8  -8  509.75   11.80
  -4   8  -8  428.06    8.00
  -4  -8   8  467.85   12.40
  -4  -8  -8  448.56   25.30
  -4  -8  -8  467.35   28.70
  -4  -8   8  472.85   15.70
  -4   8   8  434.36   17.60
   4   8  -8  428.56   15.80
  -5   8   8   22.90   15.10
  -5  -8  -8   23.40   21.20
  -5  -8   8   18.10   12.30
   5   8  -8   19.00   13.10
  -5   8  -8   19.10    7.80
  -5  -8   8   25.80    8.30
  -5   8   8   14.70    7.10
  -5  -8  -8   21.50   19.10
  -6  -8  -8    8.80   19.60
  -6   8   8   10.30    6.80
  -6   8   8    4.70   15.50
   6   8  -8    5.80   13.10
  -6  -8   8    4.20   12.70
  -6   8  -8    4.30    6.80
  -6  -8  -8   10.00   20.40
  -7  -8  -8    9.90   19.10
  -7  -8   8    6.90   13.40
  -7  -8  -8    5.50   20.40
  -7   8   8   23.10   16.40
   7   8  -8    7.30   13.90
  -7   8   8    3.20    9.60
  -7   8  -8   13.60    8.60
  -8  -8   8    6.80   14.50
   8   8  -8   -0.80   14.90
   8  -8  -8    8.60   16.50
  -8   8   8    7.40   14.30
  -8  -8  -8    7.80   23.30
  -8  -8  -8   -0.30   20.40
  -8   8  -8   -8.00   13.10
  -8   8   8    8.80    8.40
  -8   8  -8    6.60    8.60
  -9  -8  -8    2.30   24.70
   9   8  -8   -1.70   16.30
   9  -8  -8   10.80   16.20
  -9  -8   8   -2.10   16.60
  -9  -8  -8    6.10   28.20
  -9   8  -8   -7.90   14.80
  -9   8   8   -3.80   12.10
  -9   8  -8   -4.90   11.70
   1   9  -8  256.27   13.90
   1   9  -8  281.37   13.50
   1  -9  -8  280.47   11.90
  -1   9  -8  277.37   13.50
  -1   9  -8  271.47    9.20
   1   9   8  269.97   16.90
  -1   9   8  294.07   10.10
  -1  -9  -8  264.17   16.00
  -1  -9   8  235.58   11.40
  -1  -9  -8  262.37   11.10
  -1   9   8  276.37   16.50
   1  -9   8  261.27    9.80
   1  -9  -8  251.77    9.10
  -2  -9  -8    0.10   19.90
  -2   9  -8    6.00   12.10
   2   9  -8    0.90   12.90
  -2   9   8    0.10   16.10
  -2  -9  -8    0.70   21.00
  -2  -9  -8    6.90   11.10
  -2   9   8    0.60    8.50
  -2   9  -8    5.80    8.50
  -2  -9   8    1.40   11.00
   2  -9  -8    6.20   10.10
   3   9  -8  516.75   18.10
  -3  -9  -8  543.45   13.40
  -3   9  -8  532.85   13.90
  -3   9   8  529.15   19.10
   3  -9  -8  528.85   12.80
  -3  -9   8  548.75   11.20
  -3   9   8  516.35   10.20
  -3   9  -8  506.85    9.50
  -4   9   8   14.80   13.70
  -4   9  -8    9.00   10.60
   4  -9  -8   20.50    9.60
  -4  -9  -8   25.90   12.10
  -4   9   8   20.80    7.10
  -4   9  -8   25.10    8.20
   4   9  -8   28.00   14.00
  -4  -9   8   21.90   10.80
  -5   9  -8   30.80    6.40
  -5  -9  -8   34.00    9.60
  -5   9   8   31.80   13.30
  -5   9   8   35.70    8.70
  -5   9  -8   30.40   11.30
  -5  -9   8   39.30   10.60
   5   9  -8   37.40   14.60
  -6  -9   8    4.70   14.30
  -6   9   8   10.20   13.40
   6  -9  -8   12.70   10.30
  -6   9  -8   10.80    8.50
  -6   9  -8    0.40   11.40
  -6  -9   8   12.80   10.70
   6   9  -8   14.20   14.90
  -6  -9  -8    8.80    9.60
  -6   9   8   -3.40    9.40
  -7   9  -8  196.38   13.80
   7  -9  -8  175.28   14.70
  -7   9   8  177.78   14.60
   7   9  -8  159.08   16.60
  -7   9  -8  127.79    9.60
  -7   9   8  135.19   10.40
  -7  -9   8  153.98   16.60
  -8   9  -8    3.40   14.10
  -8   9  -8   -2.20    8.50
   8   9  -8    9.60   16.60
  -8  -9   8    9.70   18.40
   8  -9  -8  -13.30   16.60
  -8   9   8    9.80    9.10
   0  10   8  181.08   17.00
   0 -10   8  157.98   10.20
   0  10  -8  166.28   11.80
   0 -10  -8  170.78    8.10
   0  10  -8  169.48   10.90
   0 -10  -8  164.18   12.50
   0  10   8  172.78   11.20
   0  10  -8  179.18   10.30
  -1  10   8  104.59   16.40
  -1  10   8  116.99    9.90
   1  10   8  113.79   16.50
  -1  10  -8  108.09   12.40
  -1  10  -8  108.69    7.80
  -1 -10  -8  105.49   15.40
   1 -10  -8   99.99   11.70
  -1 -10  -8  107.49    8.50
  -1 -10   8   91.09   10.70
   1  10  -8  102.39   13.30
   1  10  -8  107.89   11.80
   1 -10  -8  107.09    8.60
   1 -10   8  112.29    9.30
   2  10  -8 1161.58   18.50
  -2  10   8 1182.68   12.90
  -2  10  -8 1256.67   17.90
   2 -10  -8 1185.78   14.90
  -2  10   8 1206.88   21.90
  -2  10  -8 1226.18   11.50
  -2 -10  -8 1145.29   13.70
  -2 -10   8 1186.08   15.40
   2  10  -8 1230.88   21.70
   3  10  -8  119.69   14.80
  -3  10  -8  124.29   13.40
  -3  10   8  121.39   16.90
  -3  10  -8  126.89    8.70
  -3 -10  -8  125.59   12.20
  -3  10   8  125.49    7.80
  -3 -10   8  126.89    9.80
   4  10  -8  152.28   15.60
  -4 -10   8  163.58    9.20
  -4  10   8  155.48   17.50
  -4 -10  -8  164.78   11.80
  -4  10   8  161.18    7.70
  -4  10  -8  146.09    8.40
  -5  10   8   -5.00    9.20
   5  10  -8   -1.40   16.40
  -5  10   8    6.70   17.30
  -5  10  -8   -0.60   11.30
  -5 -10  -8    2.00   11.80
  -5 -10   8    1.80   11.10
  -5  10  -8   -0.40    8.40
  -6 -10   8   15.40   11.00
  -6  10   8   -2.70   17.30
   6  10  -8    5.80   16.90
  -6  10  -8    8.90   12.50
  -6  10   8   10.80    9.50
  -6  10  -8    5.90    8.70
  -6 -10  -8    8.30   11.60
  -7  10   8    4.30   10.10
  -7  10  -8   12.00   16.40
  -7 -10  -8    6.10   12.60
   7  10  -8    4.70   17.50
   7 -10  -8    9.30   11.90
  -7  10   8   18.60   17.90
  -7 -10   8   14.60   12.00
  -7  10  -8    9.60    9.90
  -8  10  -8   -5.00   14.90
   8  10  -8    7.90   20.50
   8 -10  -8   18.20   17.10
  -8  10   8   -8.30   15.70
  -8 -10   8   -5.80   12.90
  -8 -10  -8   -7.00   13.10
  -8  10   8   -4.10   11.60
  -8  10  -8    0.60   10.60
  -1  11  -8    8.60    9.20
   1 -11  -8    5.80   10.00
   1  11  -8    7.40   12.80
  -1 -11  -8    3.70   15.60
  -1  11  -8    6.90   13.10
  -1  11   8    2.80    7.80
   1  11  -8    5.30   12.80
   1 -11  -8   14.30    8.50
  -1 -11  -8   12.10   10.20
  -1 -11   8    5.80    8.80
  -1  11   8    4.30   15.90
   1 -11   8    5.90    9.20
  -2  11   8    6.20    9.00
   2  11  -8    4.50   13.40
  -2  11  -8    9.20   12.50
   2 -11  -8    5.20   10.10
  -2 -11  -8   10.40    9.10
  -2  11  -8    9.00    7.30
   2  11  -8    2.00   14.60
  -2 -11   8   12.40   11.40
  -2  11   8    3.10   14.90
   3  11  -8   15.80   15.00
   3  11  -8   12.60   14.40
  -3 -11   8    9.20   11.60
  -3  11   8   22.00   15.30
  -3  11  -8   18.10   14.90
  -3 -11  -8   23.00    9.30
  -3  11   8   22.30    9.50
  -3  11  -8   17.40    6.90
  -4  11   8   31.10   17.80
  -4 -11   8   30.90   10.80
  -4  11  -8   31.90   11.50
  -4 -11  -8   31.70   11.90
  -4  11  -8   28.40    8.70
  -4  11   8   36.30    7.50
   4 -11  -8   30.10    9.40
   4  11  -8   28.00   16.10
  -5  11   8   11.70   17.90
  -5 -11   8   15.60   11.60
   5 -11  -8    5.60   12.10
   5  11  -8   10.10   18.70
  -5 -11  -8   15.30   12.20
  -5  11  -8    8.40    9.00
  -5  11   8   14.40    9.60
  -6 -11  -8   17.90   11.90
  -6  11  -8   25.30   16.10
  -6  11  -8   16.30    9.10
   6  11  -8   15.60   22.30
  -6  11   8    9.50   18.30
   6 -11  -8   18.10   13.40
  -6 -11   8   17.30   11.40
  -6  11   8   22.00   10.10
  -7 -11   8    9.00   11.90
   7 -11  -8   17.80   14.80
  -7 -11  -8   -3.60   12.90
  -7  11   8   -4.10   11.00
  -7  11  -8   16.70   14.30
  -7  11  -8    4.20   10.30
   8 -11  -8   19.70   14.20
  -8 -11  -8    4.50   14.50
  -8 -11   8   -4.30   12.90
  -8  11   8   13.40   12.50
  -8  11  -8    1.20   12.00
  -8  11  -8   13.80   19.40
   0 -12  -8 1296.07   20.00
   0  12  -8 1343.27   18.60
   0  12   8 1338.47   24.30
   0  12  -8 1305.27   17.80
   0 -12  -8 1287.37   13.60
   0 -12   8 1213.78   14.70
  -1  12   8  205.98   10.60
  -1 -12   8  178.18    9.60
   1  12  -8  190.58   14.20
   1 -12  -8  203.38   12.50
  -1  12  -8  191.98   14.60
   1  12  -8  207.78   14.10
  -1  12   8  206.98   16.60
  -1  12  -8  210.98   10.30
  -1 -12  -8  181.18   11.40
   1 -12  -8  194.98    9.90
   1 -12   8  185.68   10.50
  -2  12   8  382.26   10.90
   2  12  -8  364.36   16.70
  -2  12   8  392.16   18.50
  -2  12  -8  361.96    8.40
  -2  12  -8  381.96   14.40
  -2 -12   8  362.16   12.90
  -2 -12  -8  369.96   10.70
   2  12  -8  384.86   19.00
   3  12  -8   50.49   17.30
   3 -12  -8   56.69   10.40
  -3 -12   8   54.39   10.00
   3  12  -8   47.80   17.60
  -3  12   8   52.69   16.90
  -3  12  -8   54.09   14.30
  -3  12   8   45.50    7.50
  -3 -12  -8   51.69   12.30
  -3  12  -8   58.09    9.20
   4  12  -8  229.18   26.90
  -4  12   8  268.47   18.40
  -4  12  -8  287.87   16.60
   4 -12  -8  245.88   12.70
  -4 -12  -8  275.67   10.90
   4  12  -8  256.97   27.20
  -4  12  -8  252.17   10.00
  -4  12   8  251.87   10.70
  -4 -12   8  266.97   11.90
   5 -12  -8   58.29   12.30
  -5  12   8   69.79   15.10
  -5 -12   8   65.39   11.30
  -5 -12  -8   61.19   10.10
  -5  12  -8   60.49   15.90
  -5  12   8   53.39   10.20
  -5  12  -8   54.79    7.70
  -6 -12   8   15.90   11.90
   6 -12  -8   19.10   13.60
  -6  12  -8   28.00   17.50
  -6  12   8   19.70   10.80
  -6 -12  -8   18.90   10.40
  -6  12  -8   19.30    8.30
  -7 -12   8    5.30   12.40
   7 -12  -8   19.80   12.80
  -7  12  -8   10.20   15.60
  -7 -12  -8   20.90   10.80
  -7  12   8   10.70   11.90
  -7  12  -8   11.30    9.00
  -1  13   8  134.89   10.90
  -1  13  -8  111.79   11.60
   1 -13  -8  115.09    9.70
   1  13  -8  106.59   15.10
   1  13  -8  106.69   13.50
  -1  13  -8  118.79   12.70
  -1  13  -8  118.89    8.70
  -1 -13  -8  112.49    9.50
  -1 -13   8  102.19   11.60
  -1  13   8  121.09   16.20
   1 -13  -8  108.39   12.60
  -2  13   8   32.00   17.20
  -2  13   8   27.90    9.80
  -2  13  -8   19.80    7.80
   2  13  -8   21.10   17.70
  -2  13  -8   34.50   13.30
   2  13  -8   29.60   17.00
   2 -13  -8   32.00   11.10
  -2 -13  -8   25.60    9.30
  -2 -13   8   35.90   11.70
  -3  13   8   52.09   16.00
   3 -13  -8   54.29   12.70
   3  13  -8   47.10   24.80
  -3  13  -8   46.70   13.90
  -3 -13  -8   38.00   12.50
  -3  13   8   53.09    8.50
  -3 -13   8   47.20   10.00
  -3  13  -8   54.09    9.60
   3  13  -8   46.60   25.10
  -4  13  -8  102.19    9.80
   4 -13  -8  107.19   12.20
  -4  13   8  100.39   17.90
  -4 -13   8  113.59    9.70
  -4  13   8  112.49    8.80
  -4 -13  -8  114.79   12.40
  -4  13  -8   96.89   16.10
  -5  13  -8   13.90    9.70
  -5 -13   8   12.90    9.30
   5 -13  -8   17.40   12.40
  -5  13   8    9.40   18.80
  -5  13   8    8.90    8.90
  -5  13  -8    2.30   17.50
  -5 -13  -8    3.70   13.00
   6 -13  -8   37.70   14.20
  -6  13   8   59.69   16.90
  -6  13   8   36.80    9.60
  -6 -13  -8   36.00   13.10
  -6  13  -8   44.30   15.40
  -6  13  -8   31.60   10.60
  -6 -13   8   29.40   12.10
  -7  13  -8   12.30   12.30
  -7  13   8   -5.50   10.20
   7 -13  -8   16.50   15.90
  -7 -13   8   15.50   12.70
  -7  13  -8   25.50   17.00
  -7 -13  -8   13.90   14.00
   0 -14  -8  214.48   18.10
   0  14  -8  226.18   14.30
   0  14  -8  225.78   15.00
   0  14   8  224.38   21.10
   0 -14   8  222.48   11.50
   0 -14  -8  221.18   11.00
  -1  14  -8  233.38   11.50
  -1  14   8  222.98   12.70
   1  14  -8  211.58   17.20
  -1  14   8  233.78   19.20
   1 -14  -8  201.68   13.30
  -1  14  -8  228.98   14.00
   1  14  -8  210.08   17.90
  -1  14  -8  218.38   15.60
  -1 -14   8  203.78   12.60
  -1 -14  -8  213.68   11.60
  -2  14  -8  932.41   19.10
   2 -14  -8  887.71   16.10
  -2  14  -8  908.81   13.20
  -2  14   8  936.51   19.40
   2  14  -8  887.71   27.70
   2  14  -8  869.21   26.60
  -2  14   8  938.41   12.20
  -2 -14  -8  863.31   14.70
  -2 -14   8  925.31   13.00
  -3 -14  -8  174.38   10.90
   3 -14  -8  146.69   12.00
  -3  14   8  163.98    9.30
  -3  14  -8  173.08   15.00
  -3 -14   8  184.38   10.40
  -3  14  -8  157.38    8.80
  -4  14  -8   61.99   15.90
   4 -14  -8   60.39   12.30
  -4  14   8   64.69   17.90
  -4  14   8   67.39   11.10
  -4  14  -8   68.59    8.50
  -4 -14  -8   73.09   10.50
  -4 -14   8   85.49   12.30
  -5  14  -8   30.80   17.10
   5 -14  -8   18.20   13.10
  -5 -14  -8   12.60   10.90
  -5  14   8   20.90   11.30
  -5  14  -8    9.20   10.80
  -5 -14   8   12.10   11.70
  -6  14   8   15.90   12.20
   6 -14  -8   10.00   14.20
  -6  14  -8   16.20   19.50
  -6 -14  -8   23.00   13.80
  -6 -14   8   13.90   13.00
  -6  14  -8   17.70   11.80
  -1 -15   8  174.98   12.80
   1 -15  -8  162.88   15.10
  -1  15  -8  172.28   16.00
  -1  15   8  184.78   19.10
  -1 -15  -8  154.78   12.50
   1  15  -8  167.58   18.50
  -1  15  -8  185.38   14.70
  -1  15  -8  178.98   11.70
   1  15  -8  168.98   19.70
   2 -15  -8   35.60   13.20
  -2  15  -8   42.40   14.30
  -2  15   8   46.30   12.00
  -2 -15   8   37.80   12.70
  -2  15  -8   48.40   11.30
  -2  15   8   43.70   15.40
  -2 -15  -8   47.60   12.60
  -3  15   8   89.09   17.00
   3 -15  -8   76.09   12.50
  -3 -15   8  106.59   10.50
  -3  15  -8   77.39    9.20
  -3  15  -8  103.59   15.10
  -3 -15  -8   88.59   10.90
  -3  15   8   96.09    9.80
   4 -15  -8   49.99   14.90
  -4 -15   8   62.79   12.70
  -4  15  -8   45.20   15.90
  -4  15   8   45.70   11.90
  -4  15  -8   54.79   11.20
  -4 -15  -8   41.30   13.60
  -5  15  -8   77.79   18.30
  -5 -15   8   73.39   13.10
   5 -15  -8   71.39   14.50
  -5  15  -8   55.39   11.90
  -5  15   8   50.29   12.90
  -5 -15  -8   56.79   14.00
   0 -16   8  689.93   14.80
   0  16  -8  746.03   20.30
   0  16  -8  704.63   20.90
   0 -16  -8  732.73   14.10
   1  16  -8  222.58   24.50
  -1  16   8  244.38   21.10
  -1 -16  -8  218.58   13.20
   1  16  -8  215.78   23.30
  -1  16  -8  223.38   17.00
  -1  16  -8  239.28   15.90
  -1 -16   8  221.88   13.50
   2 -16  -8  152.78   14.60
  -2  16  -8  154.88   10.20
  -2 -16  -8  138.39   11.00
  -2  16  -8  137.69   13.40
  -2  16   8  161.58   10.50
  -2  16  -8  136.09   17.30
  -2 -16   8  154.38   11.10
  -2  16   8  154.98   19.10
  -3  16   8  131.69   10.60
  -3  16  -8  122.69   12.30
   3 -16  -8  105.49   14.90
  -3 -16  -8   94.49   11.30
  -3 -16   8  119.99   10.90
  -3  16  -8  117.19   16.20
  -3  16   8  131.59   18.00
   4 -16  -8  125.69   14.20
  -4  16   8  105.39   13.70
  -4  16  -8  116.69   12.70
  -4 -16   8  129.29   13.80
  -4  16   8  134.99   19.00
  -4  16  -8  152.98   17.60
  -4 -16  -8  136.79   14.60
   5 -16  -8   16.10   14.80
  -5  16   8   15.70   20.90
  -5  16   8    3.80   11.10
  -5  16  -8   18.00   10.80
  -5 -16  -8   13.80   12.20
  -5 -16   8   16.90   11.00
  -5  16  -8   25.20   18.90
  -1 -17   8   36.70   11.60
  -1  17   8   38.50   24.00
  -1  17  -8   39.10   16.10
  -1  17  -8   38.30   18.40
  -1 -17  -8   33.00   11.00
  -2  17   8   -5.60   13.80
  -2  17   8    9.20   20.70
  -2 -17   8    7.70   13.50
  -2  17  -8    2.50   17.10
  -2 -17  -8   17.80   13.40
  -2  17  -8    9.00   12.90
  -2  17  -8    3.00   15.60
   3 -17  -8   60.19   15.70
  -3  17  -8   34.20   16.40
  -3 -17  -8   37.60   14.20
  -3  17  -8   34.30   13.10
  -3  17   8   36.20   14.10
  -3 -17   8   41.90   13.90
  -3  17   8   65.09   20.60
   4 -17  -8   41.70   16.90
   0  18  -8   76.39   25.30
   0  18  -8  119.79   28.90
   0 -18  -8  101.19   12.00
  -1  18  -8  134.39   20.40
  -1  18  -8  122.59   19.80
  -1 -18  -8  108.89   14.90
  -1 -18   8   95.29   14.80
  -2 -18   8  116.99   12.30
  -2  18   8  156.08   25.00
  -2  18  -8  139.89   19.20
  -2 -18  -8  132.99   12.80
  -2  18  -8   96.79   18.00
  -1  -1   9   73.99   13.80
  -1   1  -9   71.29   10.20
  -1   1   9   76.89   13.40
  -1  -1  -9   66.89   13.00
  -1   1   9   80.69   12.60
   1  -1  -9   78.09   12.60
   1   1  -9   72.39   14.00
   2  -1  -9  268.37   16.90
  -2  -1   9  280.17   14.80
   2   1  -9  260.47   12.90
  -2  -1  -9  245.58   13.50
  -2   1   9  278.87   13.90
   3   1  -9  370.76   15.30
  -3   1   9  398.26   14.90
  -3   1  -9  403.96   12.40
  -3  -1  -9  397.56   12.20
  -3  -1   9  398.26   14.60
   3  -1  -9  380.96   13.90
  -4  -1   9  107.49   11.90
  -4   1   9  121.19   11.20
  -4   1  -9  108.79   10.70
   4   1  -9   97.89   13.00
   4  -1  -9  108.79   15.00
  -4  -1  -9  113.39   10.10
  -5   1  -9  102.89   11.10
  -5  -1  -9  109.09   10.40
  -5   1   9  108.49   12.30
  -5  -1   9  106.89   12.10
   5   1  -9   86.09   11.40
   5  -1  -9   88.59   12.00
  -6  -1  -9  331.57   12.00
  -6   1   9  304.67   11.80
  -6  -1   9  304.67   11.00
   6   1  -9  313.47   15.00
   7  -1  -9   19.80   11.80
  -7   1   9   21.30   12.60
   7   1  -9   17.50   13.90
  -7  -1  -9   25.90   11.60
  -7  -1   9   19.60   12.30
  -7   1  -9   16.50   10.00
  -8   1   9   56.59   14.00
  -8   1  -9   55.49   13.00
   8  -1  -9   52.59   15.90
   8   1  -9   56.49   14.60
  -8  -1  -9   57.99   12.70
  -8  -1   9   47.20   12.90
   9   1  -9    3.90   15.60
  -9  -1  -9    1.60   13.80
   9  -1  -9    6.70   16.50
  -9  -1   9   15.40   14.20
  -9   1  -9    3.40   11.90
   0   2   9  128.39   13.50
   0  -2  -9  151.08   15.70
   0   2  -9  136.79   12.60
   0  -2  -9  148.89   13.10
  -1  -2   9  168.18   17.40
  -1   2   9  175.68   16.50
  -1  -2  -9  176.98   17.50
   1  -2  -9  194.28   13.80
  -1  -2   9  178.58   11.50
  -1  -2  -9  176.58   14.10
  -1   2  -9  180.58   12.40
  -1   2   9  188.08   13.00
  -1   2  -9  192.38   10.80
   1   2  -9  173.58   13.50
  -2  -2   9  114.69   13.40
  -2  -2  -9   98.09   10.70
   2   2  -9  107.79   13.40
  -2   2   9  120.49   16.10
   2  -2  -9  108.09   13.10
  -3   2  -9  483.15   11.10
  -3  -2   9  451.55   14.00
   3   2  -9  428.76   13.00
  -3  -2  -9  473.75   12.60
  -3   2   9  446.16   13.10
   3  -2  -9  443.86   15.70
   4   2  -9    1.40    9.70
  -4   2   9    7.00   10.80
  -4  -2  -9    8.00    9.70
  -4   2  -9   10.80    8.70
   4  -2  -9    0.50   11.60
  -4  -2   9   10.90   10.80
  -5  -2   9   -1.10   11.10
  -5   2  -9   -0.20    8.60
  -5  -2  -9    4.60    9.60
  -5   2   9    6.10   10.30
   5  -2  -9   13.20   11.40
   5   2  -9    3.60   10.00
   6  -2  -9   41.20   15.50
  -6   2   9   31.60   10.60
  -6  -2  -9   26.80   10.40
   6   2  -9   30.90   13.00
  -6  -2   9   30.20    9.50
  -7  -2  -9   30.70   11.30
  -7   2   9   32.20   13.40
   7  -2  -9   21.40   12.70
   7   2  -9   29.20   13.50
  -7  -2   9   19.30   11.90
  -8  -2   9   32.50   12.80
  -8   2   9   27.10   11.70
   8   2  -9   32.20   14.10
   8  -2  -9   29.90   13.00
  -8   2  -9   28.80   10.90
  -8  -2  -9   34.10   12.30
  -9  -2   9  103.89   14.60
   9  -2  -9  115.69   17.20
   9   2  -9  134.99   15.70
  -9   2  -9  148.19   15.30
  -9  -2  -9  138.09   14.90
  -1   3   9   -2.30   13.50
   1   3  -9    3.00   12.10
  -1  -3  -9    6.40   13.80
   1  -3  -9    1.20   14.40
  -1  -3   9    5.60   12.80
  -1   3  -9    4.60    9.10
  -1   3  -9    3.30    9.30
  -1  -3  -9    3.90   12.70
  -1   3   9    8.20   11.50
  -1  -3   9    6.80   13.10
  -2   3  -9   47.90    9.60
   2  -3  -9   45.90   11.60
  -2   3  -9   46.60    7.60
  -2  -3  -9   44.10   13.50
  -2   3   9   53.59   12.70
  -2   3   9   50.69    9.00
   2   3  -9   52.49   10.60
  -2  -3   9   51.89   12.80
  -3  -3  -9    4.00   11.00
   3   3  -9    3.50   12.10
  -3  -3   9    3.90   11.40
  -3   3   9    3.50   14.40
  -3  -3  -9    3.30   12.20
   3  -3  -9    7.80   13.10
  -3   3  -9    1.50    8.10
  -4  -3   9  481.65   11.50
  -4  -3  -9  514.65   12.40
  -4   3  -9  521.15   12.70
   4   3  -9  468.95   14.20
  -4   3   9  526.65   13.80
   4  -3  -9  472.45   13.90
  -5  -3  -9   25.20    9.70
  -5   3   9   27.20   10.70
   5   3  -9   39.20   12.10
  -5   3  -9   30.70   10.90
   5  -3  -9   21.20   11.60
  -5  -3   9   23.40   11.10
  -6   3   9   32.00   13.30
  -6  -3  -9   34.70   10.20
   6   3  -9   36.40   12.70
  -6  -3   9   28.30   11.00
  -6   3  -9   34.10    9.60
   7   3  -9   33.30   13.40
  -7   3   9   28.90   13.70
   7  -3  -9   35.50   16.90
  -7  -3  -9   37.20   11.30
  -7  -3   9   26.60    9.70
   8  -3  -9  226.88   15.20
   8   3  -9  240.48   14.90
  -8   3   9  264.77   15.70
  -8  -3  -9  234.08   13.50
  -8   3  -9  244.18   14.10
  -8  -3   9  251.67   13.90
   9  -3  -9    3.10   17.40
   9   3  -9   10.80   14.60
  -9  -3   9    6.50   14.30
  -9   3  -9    3.50   12.20
  -9  -3  -9   -7.80   14.20
   0  -4  -9   50.19   14.30
   0  -4   9   46.90   10.10
   0   4  -9   46.20   11.00
   0   4   9   40.90   12.70
   0  -4  -9   48.90    9.80
   0   4  -9   48.10   11.80
  -1   4   9 1326.77   17.70
   1   4   9 1219.58   18.10
  -1  -4  -9 1237.08   18.10
   1  -4  -9 1266.67   19.70
   1   4  -9 1225.48   17.30
  -1  -4   9 1206.48   19.80
  -1   4  -9 1289.87   15.60
  -1  -4  -9 1291.27   21.50
  -1   4   9 1265.17   22.90
  -2  -4   9   39.40   12.10
  -2  -4   9   44.90   14.60
  -2   4  -9   34.10    9.30
   2   4  -9   37.20   12.20
   2  -4  -9   48.00   12.90
  -2   4   9   38.80    9.00
  -2   4  -9   36.40    7.40
  -2  -4  -9   38.60   13.20
  -2   4   9   43.70   13.80
  -3  -4  -9   55.39   12.50
  -3  -4  -9   51.69    9.70
  -3   4  -9   47.00    8.90
   3   4  -9   54.89   12.00
   3  -4  -9   48.40   13.20
  -3   4   9   56.99   12.90
  -3  -4   9   49.20   11.00
  -3   4   9   48.00    7.50
  -4  -4  -9   44.00   11.30
  -4  -4   9   43.50   11.10
  -4   4   9   59.39   15.00
   4   4  -9   49.70   12.30
  -5  -4   9  204.48   11.80
   5  -4  -9  216.98   12.20
  -5   4   9  237.78   12.40
  -5  -4  -9  220.28   10.80
   5   4  -9  206.58   13.00
  -6   4   9    2.20   13.40
  -6  -4  -9    4.60   10.30
   6  -4  -9    0.60   12.20
   6   4  -9    0.80   11.90
  -6  -4   9   13.60   10.90
   7   4  -9  145.89   13.30
  -7   4   9  167.58   14.60
   7  -4  -9  145.89   16.40
  -7  -4  -9  146.49   13.90
  -7  -4   9  122.39   12.40
  -8   4  -9   16.00   11.30
   8  -4  -9    8.10   14.60
   8   4  -9   11.40   13.70
  -8   4   9    0.50   14.80
  -8  -4  -9    2.60   12.50
  -8  -4   9    7.50   13.10
  -9  -4   9    6.50   14.20
   9  -4  -9   11.90   18.80
   9   4  -9   15.10   14.50
  -9   4  -9   16.40   15.60
  -9  -4  -9   10.20   14.10
   1  -5  -9  255.37   13.60
  -1  -5   9  247.48   12.10
   1   5  -9  252.07   12.30
  -1  -5  -9  278.47   15.80
   1   5   9  258.87   13.90
  -1  -5  -9  250.37   13.00
  -1   5  -9  268.97   11.50
  -1   5   9  275.17   10.40
  -1   5   9  264.07   17.80
  -2  -5   9  241.88   14.90
  -2  -5  -9  254.77   16.30
  -2   5   9  246.58   18.60
  -2   5   9  245.48    9.20
  -2   5  -9  241.28    8.70
  -2   5  -9  237.38   10.60
   2   5  -9  237.68   12.90
  -2  -5  -9  230.68   13.10
   2  -5  -9  234.28   13.30
  -2  -5   9  246.98   13.30
  -3  -5  -9   28.90   14.10
  -3   5  -9   26.00    7.10
  -3   5  -9   29.10   11.30
  -3  -5   9   24.40   11.30
   3   5  -9   22.40   11.60
  -3   5   9   33.00   16.70
  -3  -5  -9   25.00   10.70
   3  -5  -9   23.00   10.20
  -3   5   9   26.20    7.50
  -4   5   9  277.07   15.60
  -4   5  -9  246.68    7.90
  -4  -5   9  251.87   11.50
  -4  -5  -9  269.07   12.30
  -4  -5  -9  282.57   15.80
  -4   5   9  258.87    8.40
   4   5  -9  267.47   12.90
  -5   5   9  141.59   12.30
  -5   5  -9  138.29   12.30
  -5  -5   9  143.29   12.60
  -5  -5  -9  146.69   13.00
   5   5  -9  134.89   12.20
  -6   5   9  604.44   13.90
  -6   5  -9  592.14   12.40
   6  -5  -9  584.84   14.10
   6   5  -9  579.04   14.60
  -6  -5  -9  583.04   14.80
  -6  -5   9  557.24   13.10
  -7   5   9   11.10   14.60
  -7  -5   9   10.20   11.90
   7   5  -9   11.10   12.60
   7  -5  -9   -3.30   13.40
  -7  -5  -9    6.30   11.40
  -8  -5   9  145.69   13.40
   8  -5  -9  135.89   18.20
  -8   5   9  151.78   13.40
  -8   5  -9  180.58   11.60
   8   5  -9  157.68   13.70
  -8  -5  -9  153.28   14.90
  -9   5  -9   46.70   13.60
  -9  -5  -9   44.40   14.80
  -9  -5   9   56.29   14.50
   9  -5  -9   36.00   20.10
   9   5  -9   40.20   16.80
  -9   5   9   60.39   14.20
   0   6   9  374.26   12.90
   0  -6  -9  368.76   13.80
   0  -6   9  371.56   11.10
   0   6   9  356.46   14.70
   0   6  -9  377.76   12.10
   0  -6  -9  361.16   10.40
   0   6  -9  375.06   12.60
  -1   6  -9  518.65   12.40
  -1  -6  -9  519.55   12.70
   1   6   9  515.85   15.20
  -1  -6  -9  549.35   17.50
  -1   6  -9  532.85   11.00
  -1   6   9  541.25   12.00
   1   6  -9  516.45   13.50
  -1   6   9  527.15   19.40
  -1  -6   9  493.55   13.30
   1  -6  -9  504.65   14.30
  -2   6  -9   34.90   11.60
  -2   6   9   39.00    7.90
  -2   6  -9   39.30    7.70
  -2  -6   9   42.20   11.20
  -2  -6  -9   43.80   15.00
   2   6  -9   39.50   11.40
   2  -6  -9   41.00   11.30
  -2   6   9   39.20   18.50
  -2  -6  -9   40.50   10.80
  -3  -6  -9  740.43   17.00
  -3  -6   9  785.82   14.40
  -3   6  -9  718.23   12.40
  -3  -6   9  762.32   16.40
  -3  -6  -9  790.92   14.80
   3   6  -9  736.33   16.90
  -3  -6  -9  785.02   21.40
  -3   6   9  779.32   18.30
   3  -6  -9  722.43   12.90
  -3   6   9  745.03   10.60
  -3   6  -9  741.23   10.00
  -4  -6   9   61.99   11.70
  -4  -6  -9   63.69   16.00
  -4  -6  -9   60.89   12.50
  -4   6   9   53.89   12.60
  -4   6  -9   49.99    6.10
  -4   6   9   58.59    7.90
   4   6  -9   52.69   11.20
  -5   6   9   34.50   14.70
  -5   6  -9   33.60    9.90
  -5  -6  -9   35.60   11.80
  -5  -6  -9   33.30   14.80
   5  -6  -9   30.00   10.80
  -5  -6   9   26.10   12.00
   5   6  -9   29.60   13.20
  -5   6  -9   31.40    7.40
  -5   6   9   28.30    7.80
  -6  -6  -9   17.50   16.70
  -6   6   9   13.50   14.60
  -6  -6  -9   16.00   13.60
   6  -6  -9   16.00   11.40
  -6   6  -9   12.20   10.60
  -6  -6   9   13.30   11.20
   6   6  -9   16.70   12.30
  -6   6   9   11.10    6.80
  -7   6   9   63.69    7.90
  -7   6   9   75.19   12.70
   7  -6  -9   79.79   13.20
  -7  -6   9   78.19   12.20
   7   6  -9   67.59   14.80
  -7   6  -9   71.69   11.40
  -7  -6  -9   67.89   14.90
  -8   6   9   -0.10    8.30
  -8   6  -9   14.20   14.90
   8  -6  -9   19.50   17.60
  -8   6   9    4.20   16.30
  -8  -6   9   15.20   14.50
  -8  -6  -9    4.60   15.00
   8   6  -9    1.80   15.50
  -9   6   9   98.99   12.30
   9   6  -9  137.19   17.30
   9  -6  -9  154.68   20.60
  -9   6  -9  180.58   14.50
  -9  -6  -9  184.58   20.40
  -9  -6   9  116.39   17.40
  -1  -7  -9  131.39   10.10
  -1   7  -9  122.79   11.70
  -1  -7  -9  125.09   13.80
  -1   7   9  132.19    9.80
  -1   7   9  137.89   16.70
  -1   7  -9  137.69    9.00
   1  -7  -9  121.49   11.60
  -1  -7   9  112.99   12.70
   1   7   9  125.39   13.20
   1   7  -9  116.49   11.50
   1  -7  -9  123.39    9.50
  -2   7  -9  189.48   12.20
  -2  -7  -9  205.38   17.00
  -2   7   9  209.08   19.90
  -2  -7  -9  182.28    9.80
  -2   7   9  196.48    9.20
  -2   7  -9  183.58    8.40
   2  -7  -9  213.88   11.80
  -2  -7   9  187.48   12.30
   2   7  -9  192.28   12.70
  -3  -7  -9  177.38   13.20
  -3   7  -9  184.58   12.50
  -3  -7   9  194.18   12.10
   3   7  -9  187.98   12.00
  -3  -7  -9  180.28   12.10
  -3   7   9  195.68   18.80
  -3  -7   9  186.18   11.90
  -3   7   9  190.68    8.30
  -3   7  -9  178.58    7.90
  -3  -7  -9  190.18   18.30
  -4  -7   9  282.57   13.30
   4  -7  -9  278.17   11.10
  -4   7   9  276.17   16.80
  -4  -7  -9  287.57   15.80
  -4  -7  -9  287.67   17.50
  -4  -7   9  278.47    9.90
   4   7  -9  281.27   14.60
  -4   7   9  275.37    7.60
  -4   7  -9  279.07    8.40
  -5  -7  -9    5.30   14.20
  -5  -7  -9    4.90   15.50
  -5  -7   9   12.50   12.30
  -5   7   9    3.90   15.40
   5   7  -9    5.40   13.30
  -5   7   9    0.80    8.80
  -5   7  -9    9.70    6.10
  -6   7   9  695.93   17.40
  -6   7  -9  615.64   10.00
  -6   7   9  634.24   10.80
  -6   7  -9  712.13   15.10
  -6  -7  -9  684.03   18.00
  -6  -7  -9  691.63   20.50
   6   7  -9  686.03   16.40
  -6  -7   9  656.03   15.70
  -7  -7  -9   61.79   17.00
  -7   7   9   52.29    9.60
  -7   7   9   61.59   13.30
   7  -7  -9   57.69   12.60
   7   7  -9   71.19   14.20
  -7  -7   9   57.89   11.70
  -7  -7  -9   62.49   17.10
  -7   7  -9   75.69   12.00
  -7   7  -9   59.99    7.20
  -8  -7  -9  175.88   19.50
  -8  -7  -9  154.08   18.70
   8  -7  -9  156.98   18.10
   8   7  -9  170.08   16.10
  -8  -7   9  141.19   15.70
  -8   7   9  118.19    9.10
  -8   7  -9  104.09    8.60
  -8   7  -9  184.28   16.30
   9   7  -9    3.80   16.30
  -9  -7  -9    0.20   20.20
  -9   7  -9    4.40   17.50
  -9  -7  -9    7.10   20.40
  -9  -7   9    2.90   16.20
   9  -7  -9    3.60   16.20
  -9   7   9    5.70   12.30
  -9   7  -9   10.60   11.10
   0   8  -9  306.97   10.80
   0  -8   9  288.67    9.10
   0   8  -9  295.07   13.40
   0   8   9  293.47   16.10
   0  -8  -9  272.97   13.80
   0   8   9  317.27   11.90
   0  -8  -9  292.47    9.60
   0   8  -9  280.47   11.80
  -1   8  -9  655.73   13.80
  -1  -8   9  634.84   13.30
  -1  -8  -9  655.43   16.90
  -1   8   9  703.13   12.30
   1   8  -9  654.43   14.00
  -1   8  -9  695.83   11.10
   1  -8  -9  648.24   13.90
  -1  -8  -9  661.13   12.40
   1   8   9  666.13   17.10
  -1   8   9  717.23   19.90
   1  -8  -9  675.43   10.60
   2  -8  -9  427.06   12.00
  -2  -8  -9  414.46   18.30
  -2   8  -9  413.46   13.40
   2   8  -9  414.66   13.70
  -2   8   9  430.46   10.10
  -2   8  -9  422.76    9.70
  -2   8   9  445.46   19.50
  -2  -8  -9  397.16   11.00
  -2  -8   9  405.56   12.80
  -3   8  -9  140.39   10.50
  -3  -8  -9  139.19   16.30
  -3  -8  -9  142.59   18.90
  -3  -8  -9  150.08   11.80
  -3   8   9  140.09   17.90
   3   8  -9  135.29   13.80
  -3   8  -9  137.39    8.20
   3  -8  -9  137.19   11.30
  -3  -8   9  138.39   11.60
  -3   8   9  139.99    8.80
  -4   8  -9  132.09    6.80
   4   8  -9  134.39   13.90
  -4  -8  -9  151.08   10.10
  -4   8   9  132.19   16.40
  -4  -8   9  142.89   11.00
  -4  -8  -9  139.49   18.00
  -4  -8  -9  140.29   21.30
  -4  -8   9  136.59   11.30
  -4   8   9  128.59    8.60
  -5  -8  -9  294.17   21.50
  -5   8   9  306.07   16.50
  -5   8  -9  271.57    9.00
  -5   8  -9  317.97   14.20
  -5   8   9  291.07    9.60
  -5  -8   9  311.87    9.90
   5   8  -9  301.77   14.80
  -5  -8  -9  306.47   19.30
  -5  -8   9  298.07   14.30
   6   8  -9  108.49   13.20
  -6  -8   9  102.39   12.80
  -6   8   9  118.49   16.40
  -6   8  -9  109.49   14.20
  -6  -8  -9  105.59   20.10
  -6   8   9   96.99    9.20
  -6   8  -9   91.89    8.60
  -6  -8  -9  106.59   18.10
  -7  -8  -9   77.39   20.40
   7  -8  -9   74.69   12.50
  -7   8   9   88.69   13.90
   7   8  -9   78.19   14.50
  -7  -8   9   82.79   15.30
  -7   8  -9   92.49   12.10
  -7  -8  -9   78.69   19.60
  -7   8   9   55.69    9.80
  -7   8  -9   65.89    9.10
  -8   8  -9   32.70   16.70
   8  -8  -9   22.60   14.30
   8   8  -9   20.00   17.10
  -8  -8   9   20.40   14.90
  -8  -8  -9   22.70   23.00
  -8  -8  -9   17.80   22.00
  -8   8   9   29.60   18.10
  -8   8   9   22.30    9.00
  -8   8  -9   11.60   10.00
   1   9   9   64.59   14.20
  -1   9  -9   68.69   11.90
   1  -9   9   56.99    8.60
   1   9  -9   64.19   10.70
  -1   9   9   63.49    9.40
  -1   9  -9   62.59    9.00
  -1  -9   9   61.89   10.90
   1  -9  -9   61.79   12.00
  -1  -9  -9   65.99   13.10
  -1  -9  -9   63.09   10.00
  -1   9   9   64.09   14.70
   1  -9  -9   69.59    8.20
  -2   9  -9  132.49    8.70
  -2   9   9  123.69   16.40
  -2   9  -9  114.69   12.40
  -2  -9  -9  126.79   11.20
   2  -9  -9  125.49   10.60
  -2   9   9  120.79    9.30
  -2  -9   9  129.49   11.70
   2   9  -9  126.89   14.00
  -2  -9  -9  124.29   17.80
   3  -9  -9   13.30    8.70
  -3   9   9    6.20    8.60
   3   9  -9    7.10   13.90
  -3   9  -9   11.70   10.00
  -3   9   9    5.30   13.60
  -3  -9   9    1.40   11.40
  -3   9  -9    8.70    7.60
  -3  -9  -9  101.39   12.10
  -4   9  -9  686.03   14.70
  -4   9   9  650.13   19.60
  -4  -9  -9  726.03   14.40
  -4  -9   9  710.83   11.80
  -4   9  -9  654.53   10.20
  -4   9   9  671.03    9.80
   4  -9  -9  670.23   14.00
   4   9  -9  663.13   17.80
  -5   9   9    3.40   13.60
  -5   9  -9    6.80   10.90
  -5  -9  -9   10.80    9.90
  -5  -9   9    9.80   11.00
   5   9  -9    5.80   13.00
  -5   9   9    9.80    8.90
  -5   9  -9    4.60    6.80
  -6   9  -9   45.80   14.70
  -6  -9  -9   44.70   10.00
  -6   9   9   43.80   16.70
   6  -9  -9   48.40   10.90
   6   9  -9   41.20   15.30
  -6  -9   9   40.70   11.40
  -6   9   9   42.60    9.30
  -6   9  -9   46.50    7.00
  -6  -9   9   42.70   13.30
  -7  -9   9    0.00   11.60
   7  -9  -9    4.70   12.30
  -7   9   9   23.80   17.70
   7   9  -9    1.80   14.50
  -7   9  -9    7.70   15.80
  -7   9  -9    2.60    9.30
  -7  -9   9    6.40   13.90
  -7   9   9    8.90   10.20
  -8   9  -9  359.46   18.80
   8   9  -9  261.97   17.90
   8  -9  -9  303.07   15.60
  -8  -9   9  282.17   17.80
  -8   9   9  176.78   12.60
  -8   9  -9  129.29   11.70
   0  10  -9  128.99   10.40
   0  10   9  134.39   15.40
   0  10  -9  115.09   11.40
   0  10  -9  129.99   10.70
   0 -10   9  125.99    8.10
   0 -10  -9  120.59   12.90
   0 -10  -9  135.09    9.50
   1  10  -9  501.65   13.80
  -1  10   9  542.25   10.40
   1 -10  -9  535.25   13.10
  -1  10  -9  542.25    9.80
  -1 -10   9  475.95   12.30
  -1 -10  -9  523.35   17.40
   1  10  -9  514.15   14.80
  -1  10  -9  522.85   14.30
  -1 -10  -9  503.75   10.50
  -1  10   9  559.64   17.20
   1 -10  -9  510.85    9.10
   1 -10   9  506.45   10.90
  -2  10   9   32.60   14.90
  -2 -10   9   29.20   11.50
  -2 -10  -9   22.50    9.20
  -2  10  -9   24.90   12.50
   2 -10  -9   21.00   10.40
  -2  10  -9   31.50    7.10
   2  10  -9   33.10   13.60
  -2  10   9   22.90    9.30
  -3 -10   9  287.67   11.20
  -3  10  -9  291.17   11.90
  -3  10   9  280.87   17.50
  -3  10  -9  285.37    9.50
  -3  10   9  274.37   10.40
   3  10  -9  274.37   16.10
  -3 -10  -9  285.87   12.60
  -4  10   9   50.79   14.80
  -4  10  -9   50.09   13.20
   4  10  -9   60.49   13.00
  -4  10   9   49.10    9.10
  -4  10  -9   55.69    8.30
  -4 -10   9   63.39    8.90
  -4 -10  -9   69.19   12.00
  -5 -10   9   16.00   10.80
   5  10  -9   20.30   15.20
  -5  10   9   17.50   17.40
   5 -10  -9   35.20   12.30
  -5  10  -9   23.70   14.60
  -5 -10  -9   22.30    9.90
  -5  10   9   17.10    9.20
  -5  10  -9   22.80    8.70
  -6  10   9    5.40    9.50
  -6  10  -9   -1.40    7.30
   6 -10  -9   10.50   10.90
  -6  10   9   30.20   17.70
  -6 -10  -9   11.60    9.80
  -6 -10   9    6.00   11.10
   6  10  -9    9.80   16.80
  -6  10  -9   12.80   12.50
  -7  10  -9   -7.10   13.30
  -7 -10  -9    5.60   12.30
   7 -10  -9    5.10   15.00
   7  10  -9    1.10   17.70
  -7  10   9   10.00   15.20
  -7  10   9   -1.00   10.80
  -7 -10   9   10.30   11.80
  -7  10  -9    1.90    9.60
   8  10  -9   -2.10   20.60
   8 -10  -9   -1.30   13.80
  -8 -10  -9   -1.10   14.10
  -8  10  -9    2.70   11.20
  -8 -10   9   15.20   12.90
  -8  10   9    6.20   12.20
  -8  10  -9    9.60   18.60
   1  11  -9    5.70   12.40
  -1  11   9   16.10   10.00
   1 -11  -9   10.00   11.60
  -1  11  -9    6.90   11.50
  -1 -11  -9    5.80   15.80
  -1  11  -9    3.90   10.20
   1  11  -9    6.00   10.80
   1 -11   9   -0.60    7.60
  -1 -11  -9    7.70   10.30
  -1 -11   9    4.20    8.70
  -1  11  -9    7.40    9.40
  -1  11   9   11.50   15.90
   1 -11  -9    8.90    8.60
   2  11  -9  129.39   14.50
  -2  11  -9  152.08   12.70
   2 -11  -9  148.59   11.40
  -2  11   9  148.49   10.20
  -2  11  -9  143.79    7.50
  -2 -11  -9  138.49    9.60
   2  11  -9  149.29   14.00
  -2 -11   9  140.19   12.30
  -2  11   9  148.99   18.40
   3  11  -9   11.60   13.60
   3  11  -9    7.60   14.60
  -3  11  -9   13.10   13.60
   3 -11  -9    3.10   10.40
  -3  11   9   -0.70   15.90
  -3 -11  -9   15.10    9.30
  -3  11   9   10.20    9.10
  -3 -11   9    5.50   11.90
  -3  11  -9   12.90    6.90
  -4 -11   9   10.50   11.10
   4 -11  -9   11.20   11.50
  -4  11  -9   10.80    8.50
  -4  11   9    4.90    7.90
  -4  11   9   11.20   14.90
  -4  11  -9   10.20   14.80
   4  11  -9    7.80   16.30
  -4 -11  -9   12.50   12.10
   5  11  -9   28.40   18.10
  -5  11   9   33.30    9.90
   5 -11  -9   22.40   12.50
  -5  11   9   34.40   18.50
  -5  11  -9   30.00   15.30
  -5 -11  -9   32.90   10.00
  -5  11  -9   23.00    7.50
  -5 -11   9   27.90   11.30
   6 -11  -9  508.95   15.40
   6  11  -9  468.05   23.10
  -6 -11  -9  502.75   12.20
  -6  11  -9  514.35   15.00
  -6 -11   9  456.75   13.20
  -6  11  -9  430.06    9.90
  -6  11   9  405.26   12.10
   7  11  -9    5.90   23.10
   7 -11  -9   11.90   12.40
  -7 -11  -9    6.90   10.90
  -7  11  -9    9.40   18.10
  -7  11   9    0.60   11.00
  -7  11  -9    1.70    8.40
  -7 -11   9    9.40   12.10
   0  12  -9   53.29   11.50
   0 -12  -9   53.69   13.40
   0  12  -9   63.59   12.50
   0  12   9   59.99   15.90
   0 -12   9   58.69   10.40
   0 -12  -9   59.39    9.90
  -1  12  -9  242.78   10.90
  -1 -12  -9  221.08   20.30
   1  12  -9  226.28   14.10
  -1  12  -9  237.38   11.80
  -1  12  -9  231.68   14.50
   1 -12  -9  229.78   13.00
   1  12  -9  232.08   15.90
  -1  12   9  245.28   11.60
  -1 -12  -9  213.28   11.40
  -1 -12   9  217.98   11.40
   1 -12  -9  229.38    9.90
  -1  12   9  240.18   17.20
  -2  12   9    1.90    9.90
   2  12  -9    5.30   13.80
   2 -12  -9    1.40   12.10
  -2  12  -9   21.40   12.80
  -2  12  -9    2.40    7.50
   2  12  -9    6.10   15.00
  -2  12   9    5.80   14.60
  -2 -12  -9    8.60    9.00
  -2 -12   9   10.10   11.30
   3  12  -9  127.99   17.30
  -3  12   9  131.99    8.60
  -3  12   9  146.79   17.00
   3 -12  -9  132.79   12.70
  -3  12  -9  153.18   15.00
  -3 -12  -9  134.89   12.60
  -3 -12   9  139.19   10.50
  -3  12  -9  127.59    9.80
   3  12  -9  117.39   16.80
  -4 -12   9    9.30   11.00
   4  12  -9    1.30   16.80
  -4  12   9   -1.40   10.20
   4 -12  -9    9.30   11.50
  -4  12   9    7.40   17.70
  -4  12  -9   25.30   15.20
  -4 -12  -9   -2.60   10.00
  -4  12  -9   12.50    7.60
   4  12  -9    7.10   18.80
  -5  12  -9    7.60    7.90
   5  12  -9    5.90   26.30
  -5  12   9    2.40   10.00
   5 -12  -9   12.00   10.10
  -5  12  -9    4.80   15.90
  -5 -12   9    2.80   11.10
  -5  12   9    7.50   18.90
   5  12  -9    4.10   26.20
  -5 -12  -9    3.90   12.70
  -6 -12  -9    3.80   12.30
   6 -12  -9    1.90   14.00
  -6  12  -9    8.30   14.20
  -6 -12   9    8.80    9.70
  -6  12   9   12.20   10.90
  -6  12  -9    6.50    8.00
  -7 -12   9    7.70   10.10
  -7 -12  -9   12.30   13.70
  -7  12  -9    4.60   18.80
   7 -12  -9   -2.30   15.80
  -7  12  -9    0.30   11.30
  -7  12   9   10.70    9.80
  -1  13   9   17.30   15.30
  -1  13  -9   24.20   12.70
   1  13  -9    8.80   13.20
   1 -13  -9   11.00   11.90
   1  13  -9   17.80   14.80
  -1  13  -9   18.50   11.90
  -1  13   9   15.70   11.10
  -1  13  -9   19.70    7.90
  -1 -13   9   10.30   11.60
  -1 -13  -9   22.60   10.90
   2  13  -9    7.00   14.30
  -2  13   9    7.80   10.50
  -2  13   9    1.50   14.90
   2 -13  -9    5.70   10.80
  -2 -13   9    7.50   11.60
   2  13  -9    7.50   17.20
  -2  13  -9    2.20   12.80
  -2  13  -9    8.30    9.80
  -2 -13  -9    2.40   11.60
  -3  13   9   10.00   18.80
   3  13  -9    5.30   19.00
  -3  13  -9   12.40    9.60
   3 -13  -9    7.70   11.40
   3  13  -9    3.70   19.60
  -3 -13   9    7.20   10.20
  -3  13  -9   -3.10   14.10
  -3  13   9    5.40    8.30
  -3 -13  -9   17.50   11.90
   4 -13  -9  194.08   12.70
  -4  13   9  177.98    9.40
  -4  13   9  200.88   18.60
  -4  13  -9  209.38   16.30
  -4 -13   9  168.28   10.20
  -4  13  -9  181.08   10.50
  -4 -13  -9  171.58   13.30
  -5  13  -9    4.40   16.60
  -5 -13  -9   15.10   13.20
   5 -13  -9   -1.10   12.80
  -5  13  -9    7.90   10.30
  -5  13   9    6.10    8.90
  -5 -13   9    4.60   11.90
  -6  13  -9   11.80   18.70
   6 -13  -9    9.20   14.40
  -6 -13   9   14.50   11.90
  -6  13   9   13.40   21.50
  -6 -13  -9    3.40   13.60
  -6  13   9   -2.00   11.40
  -6  13  -9    0.90   11.20
   7 -13  -9    6.60   16.00
  -7 -13   9    2.70   13.30
  -7  13  -9   -2.60   12.00
  -7  13  -9   -1.60   20.60
  -7  13   9   -4.30   13.20
   0 -14  -9   82.39   16.30
   0  14   9   87.99   19.10
   0  14  -9   86.49   12.70
   0 -14  -9   94.19   10.70
   0 -14   9   80.79   11.90
   0  14  -9   93.99   14.10
  -1 -14   9   62.29   12.50
   1  14  -9   63.79   15.80
  -1  14  -9   67.29   11.90
   1 -14  -9   51.89   14.00
  -1  14   9   60.59   16.10
  -1  14   9   89.69   11.50
   1  14  -9   60.09   15.70
  -1  14  -9   62.99   13.10
  -1  14  -9   75.09    9.00
  -1 -14  -9   64.69    9.10
  -2  14   9   56.79    9.40
   2  14  -9   42.30   17.60
  -2 -14   9   43.20   12.50
   2  14  -9   44.00   18.40
  -2  14  -9   45.20   13.50
  -2 -14  -9   39.60   11.90
  -2  14   9   43.30   17.60
   2 -14  -9   47.20   12.80
  -2  14  -9   57.79   10.50
   3 -14  -9    6.70   12.00
  -3  14  -9   15.50   14.40
  -3 -14  -9   22.50   12.80
  -3  14   9    3.70    9.00
  -3  14  -9    5.00   10.40
  -3 -14   9    1.60    9.90
  -4  14   9   64.19   18.00
   4 -14  -9   51.59   12.60
  -4  14  -9   64.19   15.90
  -4  14  -9   35.00    8.50
  -4 -14  -9   47.00   13.20
  -4 -14   9   46.10   12.40
  -4  14   9   49.99   11.60
   5 -14  -9   19.70   11.10
  -5  14   9   22.90   11.70
  -5  14  -9   21.00   14.60
  -5 -14  -9   31.10   11.00
  -5  14  -9   14.80    8.80
  -5 -14   9   17.90   12.20
   6 -14  -9   26.60   14.60
  -6  14   9    1.30   13.00
  -6 -14  -9   18.60   11.40
  -6  14  -9   -6.70   19.90
  -6  14  -9   14.10    9.70
  -6 -14   9   -0.30   13.00
   1 -15  -9   36.00   14.50
   1  15  -9   35.30   15.90
  -1  15   9   36.30   18.00
  -1 -15   9   44.50   12.60
  -1  15  -9   27.00   15.30
  -1 -15  -9   38.10   11.90
   1  15  -9   45.40   17.00
  -1  15  -9   45.50   13.80
  -2  15  -9   26.00   12.40
   2 -15  -9   26.70   13.50
   2  15  -9   36.00   24.50
   2  15  -9   30.30   22.80
  -2  15   9   35.20   11.70
  -2 -15  -9   35.80   10.40
  -2 -15   9   32.70   12.90
  -2  15  -9   32.90    9.20
  -2  15   9   34.30   18.30
  -2  15  -9   31.70   14.20
   3 -15  -9   18.60   12.10
  -3  15   9   17.30    9.60
  -3  15  -9   15.20   17.20
  -3 -15   9   18.10   10.40
  -3  15   9   18.80   17.10
  -3 -15  -9    4.00   12.80
  -3  15  -9   17.50   11.20
   4 -15  -9    5.40   14.90
  -4  15   9   10.60   12.10
  -4  15  -9    7.10   16.00
  -4  15  -9    4.50    9.10
  -4 -15  -9   10.00   10.90
  -4 -15   9   10.50   12.60
  -5  15   9   18.50   12.40
   5 -15  -9   15.60   14.40
  -5  15  -9   17.20   12.00
  -5 -15   9    9.00   12.60
  -5  15  -9   20.70   14.50
  -5 -15  -9    8.60   14.50
   0  16  -9   12.00   17.10
   0  16  -9   18.60   15.80
   0 -16   9   10.50   10.50
   0 -16  -9   16.70    9.60
  -1  16  -9   25.90   16.00
   1  16  -9   20.40   20.40
  -1 -16   9   27.30   12.80
  -1  16  -9   33.90   15.30
  -1  16   9   37.30   18.40
   1  16  -9   31.80   21.50
  -1 -16  -9   28.70   12.50
  -2  16  -9   39.50   11.80
  -2  16   9   66.29   10.60
   2 -16  -9   40.00   15.60
  -2  16  -9   39.30   13.00
  -2  16   9   43.30   20.60
  -2  16  -9   46.50   14.60
  -2 -16  -9   45.80   12.80
  -2 -16   9   43.80   10.40
  -3 -16   9   22.10   12.70
   3 -16  -9    2.50   12.60
  -3  16   9    7.10   10.50
  -3  16  -9   12.50   12.10
  -3 -16  -9   14.60   13.90
  -3  16  -9   23.80   17.70
  -3  16   9    6.80   17.50
   4 -16  -9    5.60   13.40
  -4  16  -9    2.40   10.10
  -4  16  -9   16.20   16.60
  -4  16   9   14.10   18.50
  -4 -16  -9    7.00   11.60
  -4 -16   9   13.20   12.60
  -4  16   9    7.70   13.00
  -1  17  -9   16.30   18.00
  -1  17   9    9.00   23.80
   1  17  -9   15.70   30.40
  -1 -17   9   19.00   11.30
  -1  17  -9   16.90   16.90
  -1 -17  -9   29.30   13.70
   1  17  -9   15.40   27.80
   2 -17  -9    5.20   16.80
  -2  17   9    0.20   20.80
  -2  17  -9    4.00   15.90
  -2  17  -9   10.90   17.50
  -2  17  -9   -1.30   13.30
  -2 -17  -9    8.10   11.30
  -2 -17   9    5.70   13.50
   3 -17  -9   10.40   15.40
  -3  17  -9   -3.70   13.10
  -3  17   9    4.70   14.10
  -3 -17   9   -8.50   13.60
  -3  17  -9   15.30   18.50
  -3 -17  -9    8.10   14.30
  -3  17  -9    9.80   14.50
  -3  17   9   12.10   20.80
   0  18  -9    4.60   26.50
   0  18  -9    3.30   23.20
  -1  18  -9   19.90   20.00
  -1  18  -9   21.10   20.00
  -1 -18  -9   14.20   11.80
  -1 -18   9   17.70   12.10
  -2 -18  -9    4.30   15.50
   0   0  10  109.89   10.90
   0   0 -10  101.49   10.90
   1   0 -10 2397.46   23.30
  -1   0 -10 2280.57   21.70
  -1   0  10 2397.26   22.70
  -2   0  10  860.01   15.90
   2   0 -10  829.42   16.10
  -2   0 -10  772.02   13.90
  -3   0 -10  641.14   12.90
   3   0 -10  594.84   14.50
  -3   0  10  614.84   15.20
  -4   0  10    2.60   12.30
   4   0 -10    3.60   13.60
  -4   0 -10   11.90   10.00
  -5   0 -10  594.34   10.90
  -5   0  10  571.44   13.70
   5   0 -10  525.95   15.20
  -6   0 -10   93.49   11.20
  -6   0  10  104.29   10.40
   6   0 -10   81.29   11.50
  -7   0 -10  159.08   12.20
   7   0 -10  153.68   15.10
  -7   0  10  166.38   11.20
   8   0 -10  130.49   12.50
  -8   0 -10  153.48   13.40
  -9   0  10    1.20   14.60
  -9   0 -10   10.80   14.40
   9   0 -10   10.80   16.00
  -1   1  10    4.70   11.70
  -1  -1  10    5.60   13.40
   1   1 -10   -0.60   13.30
   1  -1 -10    2.10   11.80
  -1   1 -10   -2.60    9.60
  -1   1  10    2.10   12.60
  -1  -1  10    2.10   20.60
  -1   1 -10   -4.40   11.00
  -1  -1 -10   -1.70   13.00
  -2   1  10   34.80   15.10
   2  -1 -10   42.60   12.60
   2   1 -10   35.50   10.80
  -2  -1  10   46.00   13.10
  -2  -1 -10   36.70   10.20
  -3  -1  10 1723.83   17.60
  -3  -1 -10 1793.12   17.20
  -3   1 -10 1793.82   15.80
   3   1 -10 1719.23   19.60
   3  -1 -10 1666.83   18.80
  -3   1  10 1724.83   17.60
  -4   1  10   55.89   13.10
   4   1 -10   54.49   13.30
  -4   1 -10   75.19   10.80
  -4  -1  10   59.89   12.10
  -4  -1 -10   56.39    9.90
   4  -1 -10   61.99   14.30
   5   1 -10  648.74   13.40
  -5   1 -10  757.52   13.30
  -5  -1 -10  759.12   13.40
  -5   1  10  687.43   12.80
   5  -1 -10  673.23   14.20
  -5  -1  10  702.83   14.10
   6   1 -10   15.50   13.70
  -6  -1 -10   -1.60   10.60
  -6   1  10    8.20   10.20
   6  -1 -10    8.30   14.40
  -6  -1  10    6.30   11.50
   7  -1 -10  871.11   15.10
  -7   1  10  967.10   14.50
  -7   1 -10 1008.60   15.00
  -7  -1  10  934.01   15.40
  -7  -1 -10  972.40   14.80
   7   1 -10  936.21   17.10
  -8  -1  10    4.80   10.60
   8   1 -10   19.70   14.10
   8  -1 -10   14.00   15.10
  -8   1  10    4.10   10.90
  -8  -1 -10    5.50   12.80
  -8   1 -10   10.20   13.00
  -9  -1 -10  174.78   15.40
   9  -1 -10  168.78   17.10
  -9  -1  10  203.48   15.00
  -9   1 -10  198.58   15.20
   9   1 -10  169.88   16.10
   0   2  10  523.95   15.50
   0   2 -10  539.95   12.70
   0  -2 -10  566.34   15.60
   1   2 -10 1301.57   17.00
   1  -2 -10 1407.56   22.00
  -1   2  10 1328.37   21.50
  -1  -2 -10 1292.47   18.00
  -1  -2  10 1284.77   26.50
  -1  -2 -10 1345.27   25.10
  -1   2 -10 1333.17   17.60
  -1   2  10 1424.26   23.50
  -1  -2  10 1346.57   19.00
  -1   2 -10 1405.26   19.70
   2  -2 -10  218.78   13.40
   2   2 -10  216.78   13.90
  -2  -2 -10  204.78   11.40
  -2  -2  10  217.48   11.80
  -2   2  10  216.68   16.50
  -3  -2 -10 2043.00   18.20
  -3   2 -10 2041.60   17.60
   3   2 -10 1961.60   19.80
  -3  -2  10 2002.90   19.10
  -3   2  10 2028.20   20.40
   3  -2 -10 1947.31   19.40
  -4  -2  10  183.28   12.20
  -4  -2 -10  190.58   10.60
  -4   2 -10  185.98    9.70
  -4   2  10  185.68   14.30
   4  -2 -10  180.88   12.80
   4   2 -10  168.38   12.90
  -5   2 -10    0.90   10.20
  -5  -2 -10    7.60   10.00
  -5   2  10    8.70   10.40
   5  -2 -10   -0.40   14.60
   5   2 -10    3.10   12.20
  -5  -2  10   -0.80   10.80
  -6  -2 -10   23.80   10.50
  -6   2  10   17.50   10.60
   6   2 -10   16.60   12.60
   6  -2 -10   26.90   14.90
  -6  -2  10   18.70   10.90
  -7   2  10   67.79   12.90
   7   2 -10   60.39   13.60
  -7   2 -10   61.49   12.10
  -7  -2 -10   52.19   11.40
   7  -2 -10   59.39   15.20
  -7  -2  10   55.59   12.10
   8   2 -10    6.00   14.20
   8  -2 -10    5.60   16.20
  -8  -2 -10    7.80   12.50
  -8   2  10   13.50   14.30
  -8  -2  10    2.30   13.10
  -8   2 -10    5.20   13.30
  -9   2  10  206.38   13.50
  -9  -2 -10  218.98   15.10
  -9   2 -10  211.28   15.70
  -9  -2  10  181.68   15.40
   9   2 -10  188.98   16.30
   9  -2 -10  175.08   14.40
  -1  -3 -10 1011.60   19.80
   1   3 -10  989.00   15.00
  -1  -3  10 1006.30   17.10
  -1   3 -10 1008.50   15.70
  -1   3  10  984.60   20.00
  -1  -3 -10 1007.70   19.30
   1  -3 -10 1048.50   17.30
  -1   3 -10 1057.09   16.80
  -1  -3  10  988.80   20.50
  -1   3  10 1061.59   17.90
  -2   3 -10   53.19    9.10
   2   3 -10   56.29   12.80
  -2   3  10   61.89   13.70
  -2  -3 -10   46.80   13.10
   2  -3 -10   55.69   12.10
  -2  -3  10   57.69   12.90
  -2   3  10   50.59    8.90
  -2   3 -10   44.20    7.10
  -3   3 -10    4.40   11.00
   3   3 -10    0.80   11.90
  -3  -3 -10    4.20    9.40
  -3   3  10    7.30   14.10
  -3  -3 -10    0.40   12.10
  -3  -3  10   -1.10   11.10
   3  -3 -10    0.00   13.90
  -4  -3  10   91.79   10.60
  -4  -3 -10   96.89    9.90
  -4   3 -10  100.29    9.40
   4  -3 -10  102.29   14.40
  -4   3  10   95.69   14.10
   4   3 -10   84.09   11.80
  -5  -3  10 1461.65   16.40
   5   3 -10 1450.45   17.80
   5  -3 -10 1437.86   17.20
  -5   3 -10 1556.94   16.20
  -5  -3 -10 1504.75   15.70
  -5   3  10 1547.45   18.70
  -6  -3  10   38.50   12.30
  -6   3 -10   45.70    9.50
  -6  -3 -10   33.00   10.60
  -6   3  10   36.80   13.40
   6  -3 -10   28.30   15.00
   6   3 -10   36.50   11.40
  -7   3  10  198.38   11.80
   7  -3 -10  170.28   16.80
  -7  -3 -10  182.58   12.10
   7   3 -10  190.38   14.10
  -7   3 -10  203.48   12.90
  -7  -3  10  172.68   12.50
  -8  -3 -10  151.58   13.20
   8  -3 -10  135.09   16.40
   8   3 -10  142.89   15.00
  -8   3  10  157.38   12.50
  -8   3 -10  158.98   11.60
  -8  -3  10  144.49   14.00
   9  -3 -10  252.57   18.80
   9   3 -10  241.38   16.00
  -9  -3 -10  243.18   15.30
  -9   3 -10  286.07   16.50
  -9   3  10  240.88   14.80
  -9  -3  10  231.28   15.80
   0   4 -10  555.54   12.30
   0   4 -10  595.24   16.10
   0  -4 -10  598.44   17.50
   0  -4  10  581.14   13.30
   0  -4 -10  585.44   13.20
   0   4  10  522.75   15.30
  -1   4  10 1196.68   21.50
   1  -4 -10 1265.47   19.90
   1   4  10 1188.58   17.40
   1   4 -10 1193.78   16.80
  -1   4 -10 1194.08   15.70
  -1  -4 -10 1212.08   17.60
  -1   4  10 1294.77   18.10
  -1  -4  10 1169.88   19.20
  -1   4 -10 1265.67   15.70
  -1  -4 -10 1254.97   21.20
  -2   4 -10   38.00    9.30
  -2  -4  10   42.50   11.90
  -2  -4  10   39.30   10.20
   2  -4 -10   39.60   14.10
  -2  -4 -10   42.10   13.90
   2   4 -10   36.40    9.90
  -2  -4 -10   38.00   12.90
  -2   4  10   44.20   16.80
  -2   4  10   42.90    7.80
  -2   4 -10   39.40    8.30
  -3  -4 -10  390.86   12.10
  -3   4 -10  395.06   10.90
   3   4 -10  384.66   13.20
  -3  -4 -10  386.06   14.70
  -3   4  10  394.26   16.90
   3  -4 -10  378.96   13.00
  -3  -4  10  380.56   12.60
  -3   4  10  390.26    9.60
  -3   4 -10  382.26    8.60
   4   4 -10   21.90   11.20
  -4  -4 -10   18.70    9.80
  -4  -4  10   23.50   10.20
  -4   4  10   33.10   11.90
  -4  -4 -10   26.00   12.60
  -5  -4  10  228.08   12.20
   5  -4 -10  215.38   12.90
  -5  -4 -10  222.58   11.90
  -5   4  10  257.47   12.60
   5   4 -10  205.78   13.10
  -6  -4  10   14.40   11.10
  -6   4 -10    3.50   11.90
  -6   4  10   17.80   14.50
  -6  -4 -10    6.40   10.20
   6  -4 -10   12.50   12.80
   6   4 -10    4.80   11.70
  -7  -4  10   44.00   12.20
  -7   4  10   52.59   12.00
   7  -4 -10   36.40   13.40
   7   4 -10   42.00   13.40
  -7  -4 -10   49.30   11.60
  -7   4 -10   54.19   10.20
  -8  -4  10    1.40   12.80
   8  -4 -10    7.20   17.70
   8   4 -10   16.90   13.70
  -8   4  10   -1.50   12.50
  -8  -4 -10    3.10   14.60
  -8   4 -10    2.70   13.90
  -9  -4  10   16.30   14.60
   9  -4 -10   13.00   18.50
   9   4 -10   10.90   14.50
  -9   4  10    5.80   13.80
  -9   4 -10   21.80   16.00
  -9  -4 -10   17.60   14.50
  -1   5  10   44.20   15.90
   1  -5 -10   35.20   13.00
   1   5  10   56.29   12.50
   1   5 -10   42.30   11.10
  -1   5 -10   32.30   11.00
  -1  -5 -10   46.00   12.00
  -1  -5  10   46.30   12.00
  -1   5  10   36.30   10.70
  -1   5 -10   40.90    8.60
  -1  -5 -10   51.69   13.90
  -2  -5 -10  332.57   15.00
  -2  -5  10  331.87   13.10
  -2   5  10  329.77   18.50
  -2   5 -10  318.57    9.20
  -2  -5 -10  298.87   13.40
  -2  -5  10  312.77   13.30
   2   5 -10  310.07   12.90
  -2   5  10  320.77    9.80
  -2   5 -10  326.87   10.80
   2  -5 -10  325.77   11.50
   3  -5 -10  338.57   14.10
  -3  -5 -10  362.96   13.10
  -3   5 -10  343.07    8.70
  -3   5 -10  355.86   11.00
   3   5 -10  369.96   12.90
  -3  -5  10  372.96   13.00
  -3   5  10  351.16   18.10
  -3   5  10  356.86   10.40
  -3  -5 -10  358.06   16.40
   4   5 -10   15.80   11.30
  -4  -5 -10   22.50   12.00
  -4  -5 -10   18.00   10.70
  -4   5 -10   17.00   11.30
  -4   5  10   19.80   12.20
  -4  -5  10   21.30   10.40
  -4   5  10   13.00    7.30
  -4   5 -10   13.80    7.00
  -5   5 -10  112.69   12.00
  -5  -5 -10  105.89   11.60
  -5   5  10  105.09   15.30
  -5  -5  10   98.79   10.70
   5   5 -10   93.79   12.00
  -5  -5 -10  119.29   14.90
  -6  -5  10  340.57   12.20
  -6  -5 -10  343.77   12.40
  -6   5  10  336.27   13.40
  -6   5 -10  351.56   13.70
   6  -5 -10  330.87   13.40
   6   5 -10  350.36   13.70
  -7  -5  10  234.58   12.70
   7  -5 -10  252.37   16.90
  -7   5  10  273.97   15.40
  -7  -5 -10  240.98   12.90
   7   5 -10  227.98   13.70
  -7   5 -10  263.77   14.00
  -8   5 -10   15.10   14.30
  -8  -5  10   12.60   12.70
   8  -5 -10   13.90   17.90
  -8   5  10    9.30   15.60
   8   5 -10    7.70   13.70
  -8  -5 -10   16.40   14.90
  -9  -5  10   46.70   14.60
   9  -5 -10   58.19   16.20
   9   5 -10   53.39   16.70
  -9   5  10   77.09   13.70
  -9   5 -10   55.19   16.80
  -9  -5 -10   56.39   17.00
   0  -6  10  346.07   10.80
   0  -6 -10  344.47   15.30
   0   6 -10  350.76   11.90
   0   6  10  326.37   13.90
   0   6 -10  325.77   12.10
   0  -6 -10  332.57   10.10
  -1   6 -10  340.77   10.90
  -1   6  10  332.87   17.00
  -1  -6  10  309.07   11.80
   1   6 -10  325.37   12.00
  -1  -6 -10  350.66   16.80
  -1   6  10  354.26   11.30
   1   6  10  339.27   14.10
  -1   6 -10  336.17   10.30
  -1  -6 -10  329.17   11.30
   1  -6 -10  315.37   13.20
  -2   6 -10   35.90   11.50
  -2   6  10   42.80    8.50
  -2  -6 -10   41.60   11.00
  -2  -6  10   36.30   11.80
  -2   6  10   47.20   18.80
  -2   6 -10   36.90    7.70
   2   6 -10   44.40   11.30
  -2  -6 -10   43.00   14.90
   2  -6 -10   36.70   11.30
  -3  -6 -10  346.57   12.90
  -3  -6  10  354.16   12.20
  -3   6 -10  338.57   12.50
  -3  -6 -10  375.56   16.90
  -3  -6 -10  369.46   13.30
   3   6 -10  360.66   13.20
  -3  -6  10  344.17   12.60
  -3   6 -10  336.07    8.50
  -3   6  10  366.76   18.80
   3  -6 -10  349.07   13.80
  -3   6  10  346.27    9.20
  -4  -6 -10   38.80   15.00
   4   6 -10   33.40   11.30
  -4   6 -10   36.50    9.40
  -4  -6 -10   42.80   11.50
  -4  -6  10   34.90   10.30
  -4   6  10   51.79   16.00
  -4   6 -10   32.70    7.30
  -4   6  10   61.59    7.90
  -5  -6 -10   73.09   14.80
  -5   6 -10   73.49    9.90
  -5   6  10   67.89   15.60
  -5  -6 -10   74.69   11.70
   5  -6 -10   65.89   11.10
  -5  -6  10   70.29   10.70
   5   6 -10   79.39   12.10
  -5   6  10   69.09    8.40
  -5   6 -10   63.49    6.20
  -6   6 -10   34.30    8.10
  -6  -6 -10   45.90   15.40
  -6  -6 -10   37.10   12.10
   6   6 -10   29.50   14.30
  -6   6  10   34.30   15.30
  -6   6 -10   38.10   12.90
   6  -6 -10   39.30   14.30
  -6  -6  10   35.70   10.80
  -6   6  10   43.50    8.50
   7   6 -10   12.00   12.60
   7  -6 -10   21.20   16.00
  -7   6  10   11.60   13.10
  -7   6 -10   10.70   13.30
  -7  -6 -10   13.40   15.30
  -7  -6  10   12.90   13.60
  -7  -6 -10   18.50   13.30
  -7   6  10    8.10    9.60
  -8  -6 -10   49.20   17.00
  -8   6 -10   61.69   12.50
   8  -6 -10   51.39   14.70
   8   6 -10   45.50   13.40
  -8   6  10   51.79   13.90
  -8  -6  10   43.10   13.20
  -8  -6 -10   46.70   17.00
  -8   6  10   43.10    8.50
  -9   6 -10    6.60   10.90
  -9  -6 -10   15.50   17.20
  -9  -6  10   19.40   16.60
  -9  -6 -10   14.00   18.30
   9  -6 -10   -0.60   16.30
   9   6 -10   10.60   16.90
  -9   6 -10   14.60   17.30
  -9   6  10    6.40   12.10
  -1   7 -10  102.49   11.60
   1   7  10  119.09   13.20
  -1   7  10  119.39   10.10
  -1  -7 -10  112.49   14.60
   1   7 -10  113.99   11.00
  -1   7 -10  125.99    9.40
  -1  -7  10  111.79   11.00
  -1  -7 -10  108.39   11.60
   1  -7 -10  109.99   11.70
  -1   7  10  122.99   16.00
  -2  -7 -10   16.60   10.60
  -2   7 -10   25.00   11.70
  -2  -7  10   21.50   11.00
   2   7 -10   24.70   11.50
  -2  -7 -10   26.80   14.40
  -2   7  10   26.40    8.30
  -2   7 -10   27.40    7.70
   2  -7 -10   23.40   11.00
  -2   7  10   34.60   19.50
  -3  -7 -10   17.20   11.80
  -3   7 -10   25.60   11.20
  -3   7  10   20.90   17.60
  -3  -7  10   21.60   10.60
   3   7 -10   12.90   12.80
  -3   7  10   17.20    8.10
  -3  -7 -10   23.50   11.60
  -3  -7 -10   16.40   15.60
  -3   7 -10   17.10    7.50
   4   7 -10  375.86   13.20
  -4  -7  10  389.56   12.90
  -4   7 -10  395.76   11.70
  -4  -7 -10  391.56   15.40
  -4  -7 -10  400.96   18.10
  -4  -7  10  381.16   12.20
  -4   7  10  397.46   15.50
  -4  -7 -10  418.26   13.30
   4  -7 -10  390.06   13.40
  -4   7 -10  378.56    8.90
  -4   7  10  380.56    9.50
  -5  -7 -10   79.19   13.70
   5   7 -10   78.09   13.40
  -5   7 -10   78.79   13.30
  -5   7  10   81.89   16.30
  -5  -7  10   82.69   11.30
  -5  -7 -10   81.49   16.20
  -5   7  10   78.09    8.90
  -5   7 -10   71.39    7.00
  -6  -7  10    2.40   11.40
   6   7 -10    8.90   13.90
  -6   7  10   -6.30   12.90
   6  -7 -10   11.40   14.10
  -6   7 -10    7.20   13.40
  -6  -7 -10    3.00   14.20
  -6  -7 -10    4.10   16.30
  -6   7  10    1.50    7.20
  -6   7 -10    7.20    8.20
  -7   7  10   31.80    9.80
  -7   7  10   49.20   16.30
   7  -7 -10   43.60   13.00
  -7   7 -10   52.29   14.50
   7   7 -10   40.20   14.80
  -7  -7 -10   38.60   16.00
  -7  -7  10   44.10   11.40
  -7  -7 -10   41.10   17.60
  -7   7 -10   39.90    7.40
   8  -7 -10  261.17   15.50
  -8  -7 -10  227.58   20.00
   8   7 -10  253.67   14.40
  -8   7 -10  264.47   13.90
  -8  -7 -10  247.68   18.80
  -8  -7  10  200.08   16.00
  -8   7  10  197.68    9.80
  -8   7 -10  110.39   10.90
  -9  -7 -10    4.30   20.50
  -9  -7 -10    4.40   20.40
   9   7 -10    2.20   16.70
   9  -7 -10   -6.10   20.00
  -9   7 -10   15.30   18.00
  -9  -7  10    8.00   14.50
  -9   7  10    5.40   12.70
  -9   7 -10    0.60   11.90
   0   8 -10  555.94   13.60
   0   8 -10  552.14   11.80
   0   8  10  542.75   17.20
   0   8 -10  538.95   12.40
   0  -8  10  522.15   11.70
   0  -8 -10  529.15   10.50
   0  -8 -10  511.25   13.90
  -1  -8 -10  158.98   13.50
  -1   8  10  177.28   16.20
  -1   8 -10  179.48   12.10
   1   8  10  153.08   13.50
   1   8 -10  149.99   11.40
  -1   8 -10  172.88    9.30
  -1  -8 -10  158.68   10.20
   1  -8 -10  152.68   11.60
  -1  -8  10  141.99   10.70
  -1   8  10  169.58   10.00
   1  -8 -10  154.18    8.60
  -2   8 -10   37.80    9.80
  -2  -8 -10   29.00   14.40
   2  -8 -10   23.70   10.80
  -2   8  10   47.20   17.50
  -2   8 -10   27.30    8.10
  -2  -8  10   29.00   10.90
  -2   8  10   41.40    8.40
   2   8 -10   34.40   12.80
  -2  -8 -10   28.40   10.90
  -3  -8 -10  195.38   14.70
  -3   8 -10  197.28   10.70
  -3   8 -10  203.88    8.70
   3   8 -10  218.48   13.90
  -3  -8 -10  220.18   18.00
  -3   8  10  196.78   18.60
  -3  -8  10  212.28   12.00
  -3  -8 -10  199.48   12.80
  -3   8  10  208.58    9.40
   3  -8 -10  214.48   12.30
   4   8 -10  171.08   13.90
  -4  -8  10  179.98   11.10
  -4   8 -10  182.48   13.50
  -4   8  10  153.68   15.10
  -4  -8 -10  169.98   16.50
   4  -8 -10  165.88   10.60
  -4   8 -10  160.08    8.50
  -4  -8 -10  179.08   19.20
  -4   8  10  154.68    9.00
  -4  -8 -10  184.78   12.50
  -5  -8 -10   35.90   18.10
  -5  -8  10   43.20   11.10
   5   8 -10   37.50   11.50
  -5   8 -10   45.40   13.30
  -5   8  10   34.50   16.50
   5  -8 -10   37.80   12.70
  -5  -8 -10   46.90   12.40
  -5  -8 -10   45.70   17.30
  -5  -8  10   35.50   13.00
  -5   8  10   39.40    8.90
  -5   8 -10   40.80    8.30
   6   8 -10   11.10   13.50
  -6   8  10   -6.90   13.90
   6  -8 -10   12.20   11.30
  -6   8 -10    0.70   11.40
  -6  -8 -10    7.00   17.30
  -6  -8 -10    1.70   17.50
  -6   8  10   -2.30    8.80
  -6   8 -10    4.30    8.10
  -6  -8  10    2.70   12.50
  -7  -8 -10   29.40   19.60
   7  -8 -10   27.40   15.40
  -7   8  10   37.10   17.00
   7   8 -10   32.90   14.70
  -7  -8  10   23.90   14.10
  -7   8 -10   38.20   15.30
  -7  -8 -10   27.90   20.50
  -7   8  10   16.80   10.10
  -7   8 -10   33.70    9.60
  -8  -8 -10   11.90   23.00
  -8  -8 -10    4.70   21.70
   8  -8 -10   12.80   17.20
   8   8 -10    3.50   17.30
  -8  -8  10    9.50   15.00
  -8   8  10    9.00   14.90
  -8   8 -10   -0.50   13.80
  -8   8 -10   -5.20   10.40
  -8   8  10    5.10    9.00
   1   9  10    3.20   14.20
  -1   9 -10    2.40    9.00
  -1   9 -10    4.80   11.80
  -1  -9 -10    6.90   13.60
   1  -9 -10   10.80   10.20
  -1   9 -10    9.60   10.20
  -1   9  10    8.00    9.70
   1   9 -10    5.30   10.20
  -1  -9 -10    7.20    9.70
  -1  -9  10   18.50   10.70
   1  -9 -10    8.80    7.90
  -1   9  10    9.50   14.40
  -2   9 -10  146.49   13.20
  -2  -9  10  153.88   12.00
  -2  -9 -10  151.18   15.90
  -2   9  10  150.58    9.70
   2  -9 -10  132.39   11.50
  -2   9 -10  139.39    7.50
  -2   9  10  162.18   17.40
  -2  -9 -10  146.19   10.00
   2   9 -10  155.48   12.30
  -3  -9 -10    3.10   18.90
  -3   9 -10    5.90   10.60
  -3  -9 -10    3.00   17.00
   3   9 -10    7.60   13.40
  -3  -9  10    3.70   11.20
   3  -9 -10    3.60   10.80
  -3  -9 -10   -4.60   11.40
  -3   9  10    3.90    8.60
  -3   9 -10    3.30    7.90
  -3   9  10   -7.50   17.60
  -4   9 -10   33.20   12.90
  -4   9  10   38.70   18.70
   4  -9 -10   35.60   12.30
  -4  -9 -10   42.50   12.30
  -4  -9  10   58.29   11.20
  -4   9 -10   39.20    8.10
   4   9 -10   45.00   14.50
  -4   9  10   45.80    9.00
  -5   9  10   21.40   13.90
  -5   9 -10   35.40   13.50
   5  -9 -10   28.70   12.00
   5   9 -10   31.80   14.60
  -5  -9 -10   32.30   10.10
  -5   9  10   31.60    8.90
  -5   9 -10   25.60    6.90
  -5  -9  10   40.60   11.00
  -6  -9  10  374.16   14.80
   6   9 -10  369.36   15.40
   6  -9 -10  396.46   14.80
  -6   9  10  381.56   18.50
  -6   9 -10  384.76   16.10
  -6  -9 -10  383.96   11.80
  -6  -9  10  364.16   12.60
  -6   9  10  321.77   10.90
  -6   9 -10  326.97    8.70
   7  -9 -10   12.10   15.50
  -7   9  10    5.60   14.90
   7   9 -10   17.30   16.30
  -7  -9 -10    6.80   13.10
  -7  -9  10    7.90   11.50
  -7  -9  10   12.50   14.20
  -7   9  10    8.40   10.30
  -7   9 -10   -0.70    9.80
  -7   9 -10    7.90   13.00
  -8  -9  10   30.70   13.00
   8  -9 -10   50.59   17.80
   8   9 -10   46.30   17.60
  -8   9 -10   25.00   10.70
  -8   9  10   39.30   16.50
  -8   9 -10   32.60   14.80
  -8  -9  10   38.10   15.60
  -8   9  10   26.00   11.80
   0  10 -10   36.40   11.30
   0 -10 -10   47.80   12.60
   0 -10  10   37.90   10.00
   0 -10 -10   45.50    9.00
   0  10  10   43.10   14.90
   0  10 -10   47.10   10.50
  -1  10  10   30.50   15.80
  -1  10  10   34.00    9.70
   1  10 -10   24.20   12.30
  -1  10 -10   24.20   12.20
  -1 -10 -10   32.70   13.60
  -1  10 -10   29.60   10.50
   1  10 -10   32.10   10.40
  -1  10 -10   35.00    9.10
   1 -10 -10   25.70   11.60
  -1 -10 -10   31.30    9.50
  -1 -10  10   29.30   10.70
   1 -10 -10   32.00    8.60
  -2  10 -10  866.41   16.00
  -2  10 -10  855.61   11.60
  -2 -10 -10  838.12   25.90
   2 -10 -10  836.22   14.20
  -2 -10 -10  817.82   14.00
  -2  10  10  875.81   19.40
  -2 -10  10  825.22   14.50
   2  10 -10  844.82   17.30
  -2  10  10  889.61   12.60
  -3  10 -10    7.90    9.20
  -3  10 -10    6.10   10.50
   3  10 -10    5.30   13.20
  -3  10  10    6.80    9.30
  -3 -10  10    4.10   11.10
   3 -10 -10   -1.10   10.70
  -3 -10 -10   -3.50   12.90
  -3  10  10    8.10   18.50
  -4 -10 -10    5.80   12.00
  -4  10 -10   -2.40   13.50
   4 -10 -10   10.60   11.70
  -4  10  10    9.30   14.40
  -4  10 -10    0.60    8.50
  -4  10  10    1.00    9.40
  -4 -10  10    4.40   11.10
   4  10 -10    2.00   14.20
   5 -10 -10  180.18   13.30
  -5  10  10  189.08   19.20
  -5  10 -10  157.88    9.30
  -5  10 -10  185.38   14.90
  -5 -10 -10  186.58   11.20
  -5  10  10  174.48   10.00
   5  10 -10  172.38   15.90
  -5 -10  10  177.38   11.20
  -6 -10  10   78.89   11.50
   6 -10 -10   78.59   11.40
  -6  10  10   97.39   15.00
   6  10 -10   77.69   16.10
  -6  10 -10   83.29   15.90
  -6 -10 -10   92.69   10.90
  -6  10  10   76.19   10.30
  -6  10 -10   70.19    8.00
   7 -10 -10   77.39   12.90
   7  10 -10   63.99   16.70
  -7  10  10   92.09   19.30
  -7 -10 -10   61.29   10.90
  -7  10 -10   81.89   17.30
  -7  10  10   55.59   11.20
  -7  10 -10   54.29    8.20
  -7 -10  10   52.49   12.40
   8  10 -10   13.80   19.60
   8 -10 -10   19.70   14.30
  -8 -10 -10    8.50   12.00
  -8 -10  10   25.50   13.20
  -8  10 -10   28.20   15.40
  -8  10  10   11.60   12.50
  -8  10 -10   16.50   11.60
  -1  11  10   -0.10   16.00
   1  11 -10    4.00   10.80
  -1  11 -10    6.70   11.50
   1  11 -10   -0.90   10.90
  -1 -11 -10    5.70   14.10
   1 -11 -10    8.00   10.40
  -1  11 -10    8.60    9.60
  -1  11 -10    8.80   10.80
  -1  11  10   15.10   10.60
  -1 -11  10    1.20   11.00
  -1 -11 -10    3.10   10.10
   1 -11 -10    4.90    8.80
  -2  11 -10  129.79   11.10
   2 -11 -10  135.39   12.90
  -2  11 -10  121.89    9.50
   2  11 -10  140.89   14.30
  -2 -11 -10  129.29   12.10
  -2  11  10  125.19   15.20
  -2  11  10  126.69   10.50
  -2 -11  10  124.19   12.50
   2  11 -10  126.69   14.40
  -3 -11  10   50.29   11.80
   3  11 -10   40.80   14.90
  -3  11 -10   49.10   11.30
  -3  11 -10   45.60    7.70
   3 -11 -10   41.70   11.60
  -3  11  10   41.40    7.80
  -3 -11 -10   45.10   10.10
  -3  11  10   52.29   17.40
  -4 -11 -10  205.58   13.10
  -4  11 -10  205.88    9.80
   4 -11 -10  209.58   12.70
  -4  11 -10  208.88   12.50
  -4  11  10  202.98   15.80
  -4 -11  10  219.48   10.30
  -4  11  10  223.68   10.70
   4  11 -10  208.98   15.70
  -5  11  10   20.10   19.00
  -5  11  10   13.60    9.80
  -5  11 -10   14.00    7.40
   5 -11 -10   18.70   12.80
  -5  11 -10   21.40   14.90
   5  11 -10   18.60   17.20
  -5 -11  10   12.80   11.00
  -5 -11 -10    6.30   10.30
  -6 -11  10  154.58   12.50
   6 -11 -10  185.88   12.20
   6  11 -10  174.88   18.60
  -6  11 -10  188.68   17.00
  -6 -11 -10  189.98   11.60
  -6  11  10  150.08   11.70
  -6  11 -10  158.08    8.80
  -7 -11 -10   13.30   10.90
  -7  11 -10   18.40   14.80
   7  11 -10    4.70   19.90
   7 -11 -10   21.30   15.30
  -7  11  10   16.00   17.00
  -7  11  10   13.30   11.80
  -7  11 -10    5.40    8.60
  -7 -11  10   23.70   12.50
   0  12  10  912.11   20.30
   0  12 -10  910.11   15.00
   0  12 -10  890.31   16.80
   0 -12 -10  895.21   18.20
   0 -12  10  816.92   12.00
   0 -12 -10  872.31   12.70
  -1  12  10    4.60   10.70
  -1  12  10    7.10   15.50
   1  12 -10   -1.20   13.00
  -1  12 -10   -7.10   10.40
  -1  12 -10    3.20   11.50
  -1 -12 -10    3.40   16.40
   1  12 -10    1.40   13.10
   1 -12 -10    1.40   12.20
  -1  12 -10    3.70    9.80
  -1 -12 -10    2.50   10.30
  -1 -12  10    6.40   11.20
  -2  12 -10   61.09    8.10
   2  12 -10   64.59   14.20
  -2  12  10   65.09   10.40
  -2  12 -10   61.59   13.00
   2 -12 -10   70.09   11.60
  -2 -12  10   70.09   12.10
   2  12 -10   64.69   14.00
  -2 -12 -10   55.49    9.60
  -2  12  10   62.69   17.00
  -3  12 -10   72.19    9.60
   3  12 -10   78.19   14.80
  -3  12  10   77.79   10.30
   3  12 -10   81.19   16.00
   3 -12 -10   74.29   11.60
  -3  12 -10   82.39   14.00
  -3  12  10   79.89   17.00
  -3 -12 -10   83.49   12.40
  -3 -12  10   85.19   12.80
  -4  12  10  364.56   11.60
   4  12 -10  291.47   19.60
  -4  12  10  362.36   19.30
   4 -12 -10  361.86   13.80
  -4  12 -10  384.96   16.40
  -4  12 -10  344.27    9.30
  -4 -12 -10  385.56   11.90
  -4 -12  10  372.76   12.60
   4  12 -10  349.87   19.30
   5  12 -10   66.19   20.20
  -5 -12  10   81.49   12.00
   5 -12 -10   70.19   13.10
  -5  12  10   70.29   19.00
  -5  12 -10   81.59   13.30
  -5 -12 -10   74.69   12.50
  -5  12  10   75.79   10.60
  -5  12 -10   64.49   10.10
  -6  12 -10   14.40   10.40
  -6  12  10   -1.20   11.20
  -6 -12 -10    3.80   13.50
  -6  12 -10   -5.60   17.70
   6 -12 -10   -0.60   11.80
  -6 -12  10    8.70    9.30
   7 -12 -10   49.40   12.90
  -7 -12 -10   20.50   14.00
  -7  12  10   46.30   17.60
  -7  12 -10   47.80   16.00
  -7 -12  10   37.70   10.60
  -7  12 -10   14.40   11.40
  -7  12  10   34.20   10.40
   1  13 -10   59.69   13.80
  -1  13  10   66.19   15.40
  -1  13  10   77.49   11.80
   1  13 -10   58.49   13.30
   1 -13 -10   54.29   12.20
  -1  13 -10   69.99   14.50
  -1  13 -10   54.59   13.20
  -1  13 -10   56.49    8.80
  -1 -13  10   49.90   11.90
  -1 -13 -10   55.29   10.90
  -2  13 -10   48.50   10.10
   2  13 -10   39.50   14.60
   2 -13 -10   39.10   12.80
  -2  13 -10   51.79   13.80
  -2  13  10   38.00   10.90
  -2 -13  10   40.90   12.20
   2  13 -10   45.70   15.80
  -2 -13 -10   26.20   11.90
  -2  13  10   42.50   17.50
   3  13 -10    8.40   16.80
   3  13 -10    0.30   17.70
   3 -13 -10   11.50   11.30
  -3  13 -10   -1.20   14.30
  -3 -13  10    7.00   11.90
  -3  13 -10   -1.60    9.80
  -3  13  10    6.10   10.50
  -3  13  10    0.20   15.90
  -3 -13 -10    6.50   12.50
   4  13 -10  259.07   25.40
  -4  13  10  358.76   20.30
   4 -13 -10  307.37   13.70
  -4  13 -10  317.07   16.60
  -4  13  10  317.17   10.10
  -4 -13  10  350.26   11.10
  -4 -13 -10  342.47   14.00
   4  13 -10  301.67   24.80
  -4  13 -10  313.47   10.80
  -5 -13  10  188.88   12.60
   5 -13 -10  214.18   13.70
  -5  13 -10  226.48   18.10
  -5 -13 -10  172.18   14.00
  -5  13  10  179.98    9.90
  -5  13 -10  189.28   11.30
   6 -13 -10  122.09   12.20
  -6 -13  10   77.59   12.70
  -6 -13 -10   77.89   13.80
  -6  13 -10  128.19   19.80
  -6  13  10   86.09   12.80
  -6  13 -10   99.99   11.60
   0  14  10  350.66   21.20
   0 -14 -10  321.37   18.50
   0  14 -10  342.27   15.40
   0  14 -10  347.57   15.30
   0 -14  10  306.07   12.70
   0 -14 -10  329.07   11.80
   1  14 -10    7.90   15.90
   1 -14 -10   12.50   12.30
   1  14 -10   10.00   15.00
  -1  14  10   12.00   15.20
  -1  14 -10    6.20   14.80
  -1  14 -10    9.90    9.30
  -1 -14 -10   15.30    9.30
  -1 -14  10   14.60   11.90
  -1  14 -10   15.70   11.70
   2 -14 -10  478.95   13.60
   2  14 -10  447.16   19.90
  -2  14 -10  507.95   12.40
  -2  14 -10  508.15   17.50
  -2 -14 -10  476.35   13.70
   2  14 -10  492.65   21.20
  -2  14  10  535.35   11.50
  -2  14 -10  500.55   14.10
  -2 -14  10  508.05   12.10
  -2  14  10  532.95   20.30
   3 -14 -10   18.60   13.90
   3  14 -10   10.20   20.90
  -3  14 -10   15.10   14.40
  -3  14  10   15.80   11.60
  -3 -14  10   16.20   10.20
  -3  14  10   14.80   16.80
  -3 -14 -10   22.30   12.70
  -3  14 -10   13.30   10.40
   3  14 -10   13.00   22.70
   4 -14 -10   38.80   13.10
  -4 -14  10   50.89   12.40
  -4  14 -10   25.90   15.80
  -4  14  10   29.60   18.80
  -4  14 -10   22.40   11.20
  -4 -14 -10   42.00   13.60
  -4  14  10   48.10   11.70
   5 -14 -10   10.60   13.80
  -5  14 -10   27.00   18.00
  -5  14  10    7.00   12.10
  -5  14 -10   14.50   11.20
  -5 -14 -10   13.70   13.80
  -5 -14  10   22.20   12.20
  -5  14  10   18.10   19.00
   6 -14 -10   10.70   15.40
  -6 -14 -10    0.10   14.90
  -6  14  10   -0.20   13.10
  -6 -14  10   -3.50   12.90
  -6  14 -10   -2.20   12.50
  -6  14 -10   20.00   16.30
   1 -15 -10    5.20   14.30
   1  15 -10    3.10   16.20
  -1  15 -10    7.40   15.20
  -1 -15 -10   -3.90   12.10
  -1  15  10    3.30   17.50
  -1  15 -10   -1.80   14.10
  -1 -15  10    1.60   12.60
   1  15 -10    6.50   17.20
  -2  15 -10  181.48   15.50
  -2  15  10  190.08   18.30
   2 -15 -10  157.08   14.30
   2  15 -10  167.28   22.80
  -2  15 -10  180.88   14.90
  -2  15  10  196.58   12.80
  -2  15 -10  171.58   10.10
   2  15 -10  142.19   21.90
  -2 -15  10  183.18   13.80
  -2 -15 -10  168.38   11.00
   3 -15 -10   65.89   14.50
  -3  15 -10   74.99   11.50
  -3  15  10   78.69   10.50
  -3  15 -10   71.29   15.30
  -3 -15 -10   71.79   13.40
  -3  15  10   69.69   17.50
  -3 -15  10   81.09   10.90
  -4  15 -10   44.60   10.00
  -4 -15  10   46.60   12.50
   4 -15 -10   68.79   13.70
  -4  15  10   62.39   12.60
  -4  15 -10   63.59   16.70
  -4 -15 -10   68.89   11.60
  -4  15  10   55.09   19.40
  -5  15  10   23.70   13.30
   5 -15 -10   22.30   14.60
  -5  15  10   40.80   20.50
  -5  15 -10   33.60    9.90
  -5 -15 -10   37.40   12.10
  -5  15 -10   38.00   18.10
  -5 -15  10   36.20   13.30
   0  16 -10  220.58   17.10
   0  16 -10  221.78   16.80
   0 -16 -10  215.18   13.20
   0 -16  10  207.08   14.10
  -1  16  10    5.60   19.70
   1 -16 -10    6.10   16.60
  -1  16 -10    5.20   13.00
  -1 -16  10   14.10   12.80
  -1  16 -10   10.40   13.80
   1  16 -10    5.80   18.50
   1  16 -10    9.50   19.80
  -1 -16 -10   11.10   12.90
   2 -16 -10  328.47   16.00
  -2  16  10  376.76   12.40
  -2  16  10  355.06   22.30
  -2  16 -10  338.27   18.50
  -2  16 -10  366.86   16.70
  -2 -16 -10  341.87   14.90
  -2 -16  10  365.76   12.50
  -2  16 -10  326.47   14.10
  -3  16 -10    3.40   12.20
  -3  16 -10    8.30   18.50
   3 -16 -10    5.20   12.80
  -3  16  10    6.70   12.90
  -3 -16  10   10.40   12.90
  -3 -16 -10    1.30   13.60
  -3  16  10    3.50   17.60
   4 -16 -10   24.40   14.30
  -4  16  10   31.50   13.90
  -4 -16  10   37.10   13.40
  -4  16 -10   32.90   10.60
  -4  16 -10   44.40   17.50
  -4 -16 -10   34.50   12.30
  -4  16  10   42.80   22.60
  -1  17 -10    2.00   16.20
   1  17 -10   -0.60   23.80
  -1  17 -10    2.80   16.70
   1  17 -10    9.30   24.20
  -1 -17 -10    8.60   13.20
  -1 -17  10   -9.10   13.60
  -1  17  10    2.40   23.50
  -2  17 -10   16.70   16.10
   2 -17 -10   11.50   14.90
  -2  17  10    9.30   20.80
  -2  17 -10   -0.80   10.70
  -2  17 -10    8.40   14.90
  -2 -17  10   11.90   14.20
  -2 -17 -10   14.20   11.60
  -3  17  10   56.99   14.70
  -3  17  10   48.50   21.20
   3 -17 -10   58.49   16.20
  -3  17 -10   47.40   14.10
  -3 -17 -10   44.10   12.60
  -3  17 -10   57.89   19.40
  -3  17 -10   51.69   15.40
  -3 -17  10   48.50   13.90
   0  18 -10  180.58   23.40
   0  18 -10  175.98   25.10
  -1 -18 -10   16.00   14.50
   1  -1 -11  105.29   14.50
   1   1 -11   99.59   14.00
  -1  -1 -11  104.69   20.80
  -1  -1  11  113.89   14.00
  -1   1 -11  104.89   12.70
  -1  -1  11  106.59   23.20
  -1   1  11  116.39   20.70
  -1   1  11   98.19   15.60
  -1  -1 -11   99.49   13.10
  -1   1 -11  105.59   14.30
  -2  -1 -11   15.10   10.10
  -2   1  11   17.30   14.00
   2  -1 -11   22.90   13.80
  -2   1 -11   11.60    9.60
   2   1 -11   16.70   10.90
  -2  -1  11   19.00   11.30
   3  -1 -11   37.20   13.60
  -3  -1  11   49.99   10.10
   3   1 -11   46.00   11.00
  -3  -1 -11   43.30   10.00
  -3   1 -11   51.19    8.70
  -3   1  11   54.19   13.70
   4  -1 -11   23.60   13.90
  -4  -1 -11   27.10    9.70
  -4   1 -11   33.80   10.60
  -4   1  11   23.50   10.40
  -4  -1  11   34.60   12.10
   4   1 -11   60.29   13.10
  -5   1 -11   36.50    8.40
  -5  -1 -11   23.70    8.60
   5  -1 -11   26.40   11.30
  -5   1  11   42.20   10.00
   5   1 -11   37.60   10.00
  -5  -1  11   31.70   11.10
  -6   1  11    7.50    9.90
  -6   1 -11   13.10   11.40
  -6  -1 -11    5.70   11.10
   6   1 -11    0.70   12.80
   6  -1 -11    6.20   14.30
  -6  -1  11   10.70   11.80
  -7  -1 -11   77.39   12.00
  -7   1 -11   80.89   10.10
   7  -1 -11   59.29   15.10
   7   1 -11   75.09   13.90
  -7   1  11   82.09   13.40
  -7  -1  11   73.59   10.20
  -8   1 -11    2.10   10.80
   8  -1 -11   15.20   12.50
   8   1 -11   19.00   14.20
  -8  -1 -11   12.30   12.80
  -8  -1  11    8.60   12.60
   9  -1 -11   -1.30   12.90
   9   1 -11   12.50   15.60
  -9   1  11   11.20   15.00
  -9   1 -11   14.70   14.40
  -9  -1 -11   15.40   14.40
  -9  -1  11    5.80   14.20
   0   2 -11    6.50   10.00
   0   2  11    7.70   12.30
   0  -2 -11    4.70   14.30
   1   2 -11    3.30   12.50
  -1  -2 -11    3.90   13.40
  -1   2 -11    1.60   12.00
   1  -2 -11    1.90   12.40
  -1   2  11    2.60   14.40
  -1   2  11    0.40   14.30
  -1  -2  11    4.40   16.00
  -1  -2 -11    4.90   14.50
  -1   2 -11   14.40   11.70
  -1  -2  11    4.90   10.30
  -2   2  11 1062.29   16.90
   2  -2 -11 1094.29   18.70
  -2  -2 -11  991.70   17.60
   2   2 -11 1077.89   15.60
  -2  -2  11 1135.69   17.50
  -2   2  11 1089.29   15.20
   3  -2 -11   15.40   13.90
   3   2 -11    3.70   11.80
  -3  -2 -11    4.20   11.90
  -3  -2  11    7.20   11.50
  -3  -2 -11    9.80    9.60
  -3   2  11    9.50   10.70
  -3   2 -11    4.00   10.50
  -4  -2  11   35.20   11.30
  -4  -2 -11   43.90    9.60
   4   2 -11   38.30   10.20
  -4   2 -11   35.50   10.70
  -4   2  11   38.90   13.00
   4  -2 -11   32.80   12.50
   5  -2 -11   15.30   12.50
  -5   2 -11   27.30   10.60
  -5  -2 -11   23.50   10.50
  -5   2  11   28.40   10.50
   5   2 -11   20.90   12.30
  -5  -2  11   15.20   11.10
  -6   2 -11   87.19   11.70
  -6  -2 -11   83.39   11.30
  -6   2  11   78.99   10.80
   6   2 -11   76.09   13.40
   6  -2 -11   60.79   12.40
  -6  -2  11   74.19   12.60
  -7  -2  11    6.70   12.00
  -7   2 -11    8.90    9.90
  -7  -2 -11    8.80   11.60
   7  -2 -11   10.60   15.00
   7   2 -11   11.40   13.60
  -7   2  11   15.20   10.90
   8  -2 -11   49.20   16.10
   8   2 -11   52.79   14.30
  -8  -2 -11   50.99   13.00
  -8   2 -11   62.09   13.80
  -8   2  11   54.89   11.90
  -8  -2  11   55.89   13.70
   9  -2 -11    5.80   16.60
   9   2 -11    1.00   15.60
  -9   2 -11   21.90   15.50
  -9  -2 -11    1.50   14.30
  -9  -2  11   -4.00   14.60
   1   3 -11  184.38   13.00
  -1  -3  11  193.58   15.70
  -1  -3 -11  186.08   14.80
  -1  -3  11  177.78   13.40
  -1   3 -11  202.08   12.60
  -1   3 -11  186.68   10.30
   1  -3 -11  195.88   15.60
  -1   3  11  167.78   13.40
  -1  -3 -11  187.48   14.40
  -1   3  11  204.98   14.90
  -2   3  11   31.80   16.10
   2  -3 -11   27.10   14.30
  -2  -3 -11   35.40   13.30
  -2  -3  11   41.00   14.40
  -2  -3  11   33.70   12.40
   2   3 -11   34.10   12.10
  -2   3  11   35.90    9.00
  -2   3 -11   31.90    8.10
  -3  -3 -11  538.65   13.50
  -3  -3 -11  508.05   15.20
  -3   3 -11  542.25   12.80
  -3  -3  11  520.05   13.00
   3   3 -11  512.15   13.80
  -3   3  11  518.15   14.50
   3  -3 -11  531.45   15.90
   4   3 -11    9.80   11.70
  -4  -3 -11    1.50   13.00
  -4  -3 -11    4.40    9.80
  -4   3 -11    3.50    8.80
  -4  -3  11   15.00   10.90
  -4   3  11    2.80   11.10
   4  -3 -11   -6.80   14.10
  -5  -3  11   37.50   11.20
  -5   3 -11   42.50   11.90
  -5  -3 -11   42.30    9.70
  -5   3  11   51.29   13.60
   5   3 -11   41.20   12.60
   5  -3 -11   29.10   12.30
  -6  -3  11   19.40   10.40
  -6   3 -11    6.60   10.00
  -6  -3 -11    8.90   10.30
   6   3 -11    7.60   10.60
  -6   3  11   12.90   13.70
   6  -3 -11   18.70   15.60
  -7  -3  11  185.68   12.80
  -7   3 -11  188.08   10.70
   7  -3 -11  159.38   14.10
  -7  -3 -11  173.88   12.00
  -7   3  11  207.28   15.10
   7   3 -11  172.58   13.80
  -8  -3  11    5.10   13.00
   8  -3 -11    9.60   16.00
   8   3 -11   -2.40   14.40
  -8   3 -11   -1.00   13.80
  -8  -3 -11    6.90   12.60
  -8   3  11   18.10   14.10
  -9  -3  11   28.50   14.60
  -9  -3 -11   27.40   17.00
  -9   3  11   39.10   13.40
   9  -3 -11   24.80   17.70
   9   3 -11   26.20   12.70
  -9   3 -11   29.40   13.00
   0   4 -11 3225.98   21.10
   0   4  11 3068.49   24.90
   0  -4 -11 3478.05   28.30
   0  -4 -11 3406.76   25.40
   0  -4  11 3346.07   25.50
  -1  -4  11   16.60   12.20
  -1   4 -11   15.60    9.60
   1   4 -11   14.40   11.60
   1  -4 -11   15.50   14.10
  -1   4  11   10.50   15.20
  -1  -4 -11   12.70   11.20
  -1   4  11   16.40   11.40
  -1   4 -11   15.70   11.00
  -1  -4 -11   23.60   14.40
  -2   4 -11   37.20    8.70
  -2  -4  11   28.50   12.20
   2  -4 -11   34.40   13.30
  -2  -4 -11   36.40   13.40
  -2   4  11   32.80    9.40
  -2  -4 -11   30.40   11.60
  -2  -4  11   33.20   13.90
   2   4 -11   45.30   11.80
  -2   4 -11   33.50    7.40
  -2   4  11   34.80   16.50
  -3  -4  11   77.19   11.20
  -3   4 -11   72.09    9.70
  -3  -4 -11   64.29   12.70
   3   4 -11   73.39   11.70
  -3   4  11   76.69   15.70
  -3  -4 -11   66.19   11.60
   3  -4 -11   61.29   11.80
  -3   4  11   76.49    9.20
  -3   4 -11   71.89    7.30
   4   4 -11  778.52   14.80
  -4  -4 -11  822.22   14.30
  -4   4 -11  814.82   13.80
  -4  -4  11  773.42   13.80
   4  -4 -11  776.82   16.10
  -4   4  11  837.72   17.20
  -4  -4 -11  797.02   17.60
  -5   4 -11   23.00   11.70
  -5  -4 -11   19.10   10.90
  -5  -4  11   18.60   10.60
  -5   4  11   22.70   14.20
   5  -4 -11   18.10   11.90
   5   4 -11   21.60   11.70
  -6  -4  11   90.99   11.80
  -6   4  11  121.89   14.70
  -6   4 -11  112.59   12.80
  -6  -4 -11  109.69   11.10
   6   4 -11  117.59   12.80
   6  -4 -11  100.59   15.60
  -7  -4  11   19.10   11.80
   7  -4 -11   22.90   16.70
  -7   4 -11   23.90   12.90
  -7  -4 -11   22.10   11.40
   7   4 -11   19.20   13.30
  -7   4  11   24.70   14.80
  -8  -4  11    3.50   12.60
  -8   4 -11    4.50   14.10
   8  -4 -11   13.50   14.20
   8   4 -11    3.40   13.50
  -8  -4 -11    0.30   15.00
  -8   4  11    7.90   15.30
  -9  -4  11   17.80   14.60
   9  -4 -11   19.90   18.60
   9   4 -11   16.10   14.70
  -9   4  11   17.60   14.00
  -9   4 -11    7.10   13.40
  -9  -4 -11   19.90   14.80
  -1   5 -11  479.35   12.50
   1  -5 -11  460.25   15.00
   1   5  11  448.46   13.10
  -1   5  11  436.16   14.90
  -1   5 -11  452.05   12.40
   1   5 -11  440.06   13.00
  -1   5  11  479.45   13.00
  -1  -5 -11  451.05   13.60
  -1  -5 -11  485.15   18.00
  -1  -5  11  432.36   13.00
  -2   5 -11   10.10   11.50
  -2  -5 -11    8.20   11.80
  -2  -5 -11    5.30   13.20
  -2  -5  11    5.70   13.90
  -2  -5  11    4.60    9.40
  -2   5 -11    1.10    7.90
   2   5 -11   -1.90   11.50
  -2   5  11    6.40   10.00
  -2   5  11    4.30   14.20
   2  -5 -11    7.20   10.10
  -3  -5 -11   79.79   12.00
  -3   5 -11   86.59   11.50
   3  -5 -11   95.49   13.30
   3   5 -11   87.49   11.40
  -3  -5  11   85.49   11.60
  -3  -5  11   92.29   11.10
  -3   5  11   78.19   13.80
  -3  -5 -11   88.59   13.10
  -3   5  11   90.29    8.30
  -3   5 -11   88.59    7.10
   4   5 -11   22.10   11.00
  -4  -5  11   25.60   10.90
  -4  -5 -11   29.30    9.10
  -4   5 -11   24.20   11.40
  -4  -5 -11   27.50   12.30
   4  -5 -11   29.10   12.90
  -4   5  11   20.60    7.90
  -4   5  11   29.60   14.70
  -4   5 -11   25.90    7.20
  -5   5  11  693.23   17.00
   5   5 -11  638.24   14.30
  -5   5 -11  687.13   13.90
  -5  -5 -11  670.93   13.20
   5  -5 -11  680.63   15.90
  -5  -5  11  618.54   13.00
  -5  -5 -11  690.53   17.90
  -5   5  11  633.54   10.50
  -6   5 -11   69.19   12.60
  -6  -5  11   57.29   11.10
  -6  -5 -11   64.89   10.60
  -6   5  11   75.29   14.70
   6   5 -11   62.99   14.30
   6  -5 -11   60.49   14.90
  -6  -5 -11   69.89   15.40
   7   5 -11   67.19   14.90
  -7  -5  11   60.49   13.70
   7  -5 -11   76.19   13.30
  -7   5 -11   78.19   11.00
  -7   5  11   75.79   12.70
  -7  -5 -11   76.59   13.80
  -8   5  11   20.20   13.10
  -8  -5  11   21.50   13.20
   8  -5 -11   15.20   18.40
   8   5 -11   13.10   13.80
  -8  -5 -11   20.00   13.10
  -8   5 -11   23.10   12.30
   9  -5 -11  112.69   20.00
   9   5 -11  112.29   17.80
  -9  -5  11  107.09   15.10
  -9   5 -11  133.59   14.40
  -9  -5 -11  132.79   17.80
   0  -6 -11   10.20   14.00
   0   6 -11    7.20   10.00
   0  -6 -11    2.00    9.60
   0   6  11   -0.30   11.50
   0  -6  11    1.20    9.00
   1  -6 -11  104.49   12.00
   1   6  11  109.09   13.30
  -1   6  11  113.39   15.00
   1   6 -11  107.99   11.10
  -1  -6 -11  133.89   16.00
  -1   6  11  117.39   10.80
  -1   6 -11  121.59   10.60
  -1   6 -11  120.39    9.60
  -1  -6 -11  115.09   10.20
  -1  -6  11  103.59   11.30
  -2   6 -11 1232.88   16.10
  -2   6  11 1271.07   14.50
   2  -6 -11 1208.08   16.40
  -2  -6 -11 1179.28   16.60
  -2  -6  11 1189.28   17.80
   2   6 -11 1246.08   16.60
  -2   6  11 1366.26   23.00
  -2  -6 -11 1310.67   22.00
  -2   6 -11 1221.78   13.10
  -3  -6  11    0.40   11.10
  -3  -6 -11    3.20   10.60
  -3   6 -11    8.70   11.20
  -3  -6 -11    4.80   14.40
   3   6 -11    1.70   11.40
  -3  -6 -11    6.40   11.30
  -3   6  11    5.60   17.30
  -3  -6  11    5.00   10.70
   3  -6 -11   -1.60   12.30
  -3   6  11    4.00    7.80
  -3   6 -11    6.50    7.30
   4   6 -11   20.30   10.90
  -4  -6 -11   23.30   11.20
  -4   6 -11   20.90   12.00
  -4  -6  11   26.20   10.50
  -4   6  11   24.90   16.50
   4  -6 -11   20.80   12.40
  -4  -6 -11   22.10   14.90
  -4   6  11   21.70    8.10
  -4   6 -11   24.40    7.30
  -5   6  11   37.70    8.30
  -5  -6  11   38.60   10.70
   5   6 -11   36.30   13.30
  -5   6 -11   48.00   12.30
  -5  -6 -11   45.90   11.60
  -5   6  11   41.90   12.80
  -5  -6 -11   53.39   14.90
   5  -6 -11   33.80   13.50
  -5   6 -11   44.20    8.10
  -6  -6 -11   33.60   13.60
  -6  -6 -11   28.50   14.80
  -6   6 -11   28.80   12.90
  -6   6  11   24.60   12.70
  -6   6  11   27.20    8.60
   6  -6 -11   31.30   14.40
   6   6 -11   26.20   12.60
  -6  -6  11   25.10   10.60
  -6   6 -11   29.90    7.90
  -7  -6 -11   30.90   15.80
  -7   6 -11   18.90    8.80
  -7  -6  11   33.30   13.90
   7  -6 -11   24.10   13.60
  -7   6  11   42.10   15.80
  -7   6 -11   32.80   11.60
   7   6 -11   35.70   14.80
  -7  -6 -11   29.90   13.80
  -7   6  11   24.90    9.70
  -8   6 -11   14.30    9.70
  -8  -6 -11   22.90   15.20
   8  -6 -11   17.70   15.20
   8   6 -11   19.10   13.50
  -8  -6 -11   20.10   18.80
  -8   6 -11    1.40   15.20
  -8  -6  11   20.00   13.00
  -8   6  11   12.30   10.80
  -9  -6 -11    4.00   18.70
  -9   6  11    0.60   15.10
   9  -6 -11   -0.20   20.60
   9   6 -11    5.20   14.80
  -9   6 -11   13.20   17.50
  -9  -6  11    2.50   16.60
  -9   6  11    1.10   12.60
  -9  -6 -11   10.60   17.30
  -9   6 -11   -0.60   11.30
  -1   7 -11   21.00   11.70
  -1   7  11   21.10   10.20
  -1   7  11   17.50   14.30
   1  -7 -11   16.80   11.10
  -1  -7 -11   15.30   12.30
  -1   7 -11   19.00   10.90
   1   7 -11   16.70   10.20
   1   7  11   14.50   11.30
  -1   7 -11   17.70   10.40
  -1  -7 -11   13.80   11.30
  -1  -7  11   12.70   10.60
  -2   7 -11   34.40   12.20
  -2  -7 -11   51.19   16.00
  -2  -7  11   33.80   11.60
  -2   7  11   39.90    8.90
  -2   7 -11   36.60    8.20
  -2  -7 -11   39.80   10.90
   2  -7 -11   40.80   10.90
  -2   7  11   43.10   19.00
   2   7 -11   30.70   11.50
  -3  -7 -11  189.28   13.20
  -3   7 -11  209.88   12.20
   3   7 -11  195.68   12.00
   3  -7 -11  191.58   12.10
  -3  -7 -11  198.38   12.50
  -3   7  11  186.98   17.90
  -3   7  11  192.18    9.20
  -3   7 -11  184.28    8.40
  -3  -7  11  205.88   12.00
  -3  -7 -11  211.78   15.90
   4   7 -11   84.29   11.50
  -4  -7 -11   96.69   14.60
  -4   7 -11   93.09   12.90
  -4  -7 -11   87.59   12.70
  -4  -7  11   92.19   10.60
  -4  -7 -11  100.69   12.20
  -4   7  11   94.79   17.80
   4  -7 -11   95.69   13.20
  -4  -7  11   88.49   10.80
  -4   7  11   85.89    8.50
  -4   7 -11   88.99    7.80
  -5   7 -11  350.96    9.40
  -5   7 -11  387.66   12.10
   5  -7 -11  370.36   12.30
  -5  -7 -11  389.26   15.40
  -5   7  11  417.26   17.80
  -5  -7  11  363.16   12.40
  -5  -7 -11  385.46   18.10
   5   7 -11  387.76   13.10
  -5   7  11  356.36   10.20
  -6   7 -11    7.80    8.20
  -6  -7  11   16.10   11.50
  -6  -7 -11   15.10   16.40
  -6   7 -11   12.90   11.00
  -6   7  11   16.30   13.40
   6  -7 -11   10.00   11.80
  -6  -7 -11   12.70   12.80
   6   7 -11   19.40   11.90
  -6   7  11    8.60    9.30
  -7  -7  11  376.26   13.60
   7   7 -11  410.66   14.30
   7  -7 -11  413.86   17.40
  -7   7  11  424.46   15.20
  -7  -7 -11  373.96   17.70
  -7  -7 -11  411.96   17.70
  -7   7  11  290.27   11.10
  -7   7 -11  340.07    9.00
  -7   7 -11  443.06   13.20
   8  -7 -11   33.10   18.70
   8   7 -11   32.50   14.00
  -8   7  11   42.10   15.20
  -8  -7 -11   38.20   18.70
  -8   7 -11   24.20   10.20
  -8   7 -11   50.99   15.90
  -8   7  11   27.40   11.20
  -8  -7 -11   31.00   17.80
  -8  -7  11   31.10   13.40
  -9  -7 -11   32.00   21.10
   0   8  11  687.23   17.30
   0   8 -11  682.73   13.10
   0  -8 -11  661.23   11.50
   0  -8  11  665.03   13.50
   0  -8 -11  661.63   14.60
  -1  -8 -11   48.90   12.80
  -1   8 -11   52.89   12.00
  -1   8  11   51.49   14.80
   1   8  11   62.59   12.40
  -1   8 -11   53.89   10.60
   1   8 -11   54.49   10.80
  -1   8 -11   60.89    9.20
  -1   8  11   60.69   10.00
  -1  -8 -11   51.49    9.60
  -1  -8  11   54.99   10.00
   1  -8 -11   59.89   11.00
   2   8 -11  357.96   14.30
  -2   8 -11  362.96   11.20
  -2  -8 -11  382.26   17.40
  -2   8  11  363.76   10.60
  -2  -8 -11  346.67   12.30
  -2   8 -11  364.96    9.90
  -2  -8  11  352.66   13.30
   2  -8 -11  352.06   12.50
  -2   8  11  382.76   19.70
  -3  -8 -11   88.09   13.00
  -3   8  11   94.09    9.00
  -3   8 -11   97.79   10.70
   3   8 -11   95.59   13.50
  -3  -8  11  102.59   11.90
  -3  -8 -11  108.99   16.50
  -3  -8 -11   94.09   12.80
  -3   8  11   87.59   17.60
   3  -8 -11   89.69   11.20
  -3   8 -11   90.89    8.70
   4   8 -11   85.39   13.90
  -4  -8  11  101.99   11.10
  -4   8 -11   93.89   13.00
  -4  -8 -11   95.69   14.30
   4  -8 -11   89.29   10.50
  -4   8 -11   96.89    8.60
  -4   8  11   91.19   17.40
  -4   8  11   95.69    8.80
  -4  -8 -11   97.29   18.10
  -4  -8 -11   96.09   13.10
  -5  -8  11    2.10   10.90
  -5  -8  11    8.60   12.90
  -5  -8 -11    2.20   18.90
  -5   8 -11   11.70   13.20
  -5   8  11   12.20   17.10
   5  -8 -11    3.00   13.20
  -5  -8 -11    8.00   13.10
   5   8 -11    2.30   13.90
  -5  -8 -11    4.90   14.60
  -5   8  11   -0.70    8.90
  -5   8 -11    5.20    8.20
  -6  -8  11   27.80   13.30
   6   8 -11   31.20   13.90
  -6  -8 -11   19.70   18.20
   6  -8 -11   30.80   13.90
  -6   8 -11   27.00   13.90
  -6   8  11   29.20   13.20
  -6   8 -11   22.30    8.50
  -6  -8 -11   27.40   17.40
  -6  -8  11   19.00   11.10
  -6   8  11   27.00    9.30
  -7  -8 -11   -1.50   17.90
   7  -8 -11    7.10   13.30
  -7   8  11    8.20   14.20
   7   8 -11   -2.70   12.90
  -7   8 -11   10.70   12.60
  -7   8  11   -6.40   10.30
  -7  -8 -11    3.80   18.90
  -7  -8  11   14.20   14.10
  -7   8 -11    8.90    9.50
  -8  -8 -11   62.39   22.00
   8  -8 -11   59.59   18.00
   8   8 -11   63.79   16.00
  -8   8  11   66.69   15.80
  -8   8 -11   65.59   17.40
  -8  -8  11   55.29   15.80
  -8  -8 -11   47.80   22.60
  -8   8  11   52.29    9.90
  -8   8 -11   25.40   10.50
  -1   9  11   78.79   10.60
  -1   9 -11   81.49   12.40
  -1   9  11   95.79   16.70
   1   9  11   79.79   15.20
   1   9 -11   90.49   11.20
  -1   9 -11   82.39    9.80
  -1   9 -11   80.19   10.70
   1  -9 -11   79.39   11.00
  -1  -9 -11   72.49   10.20
  -1  -9  11   79.89   10.90
  -1  -9 -11   76.59   15.00
  -2  -9 -11   21.40   14.70
   2  -9 -11   22.10   11.10
  -2   9 -11   28.90   11.90
  -2   9  11    7.50   16.80
  -2   9  11   23.80    9.50
  -2   9 -11   20.60    8.90
  -2  -9 -11   17.30   11.40
  -2  -9  11   16.90   13.90
   2   9 -11   23.00   10.60
  -3  -9 -11  609.94   22.30
  -3  -9  11  661.53   13.70
  -3  -9 -11  596.44   19.90
  -3   9 -11  604.14   13.10
   3   9 -11  600.94   14.80
  -3   9 -11  611.94   10.50
   3  -9 -11  617.24   14.10
  -3   9  11  614.24   17.70
  -3  -9 -11  597.34   14.10
  -3   9  11  635.04   11.50
   4   9 -11   22.70   13.40
  -4  -9  11   21.00   10.90
   4  -9 -11   22.50   11.70
  -4  -9 -11   21.40   22.00
  -4   9 -11   19.80   10.10
  -4  -9 -11   16.60   12.90
  -4  -9 -11   20.20   18.20
  -4   9  11   23.20    9.00
  -4   9 -11   19.00    8.60
  -4   9  11   24.50   17.40
  -5   9 -11  103.09    8.70
  -5  -9  11  102.79   11.10
  -5   9 -11  101.29   14.10
   5  -9 -11   85.09   13.00
  -5   9  11   95.69   17.40
  -5  -9 -11   93.69   29.30
   5   9 -11   85.69   13.50
  -5   9  11   93.39    9.40
  -5  -9 -11   97.19   26.00
  -5  -9 -11  117.79   12.70
  -6  -9 -11   79.59   10.80
  -6  -9  11   83.39   15.70
   6  -9 -11   85.29   11.50
  -6   9  11   83.89   14.30
  -6   9 -11   93.29   12.50
  -6   9  11   91.39   10.10
   6   9 -11   84.69   14.30
  -6   9 -11   74.99    7.70
  -6  -9  11   82.69   11.40
  -7   9  11  151.58   11.60
   7  -9 -11  197.98   13.70
  -7  -9  11  167.48   12.80
   7   9 -11  212.48   15.80
  -7   9  11  238.78   19.10
  -7  -9 -11  184.48   14.00
  -7   9 -11  219.88   16.90
  -7  -9  11  192.58   15.40
  -7   9 -11  178.98   10.40
   8  -9 -11    4.50   17.80
   8   9 -11    8.30   18.10
  -8  -9 -11    6.20   14.60
  -8  -9  11   -7.50   10.30
  -8   9 -11    0.00   18.00
  -8   9 -11    0.00   11.10
  -8  -9  11    1.80   18.00
  -8   9  11   11.60   10.00
   0  10 -11  456.05   12.90
   0  10 -11  458.95   12.50
   0 -10 -11  477.45   15.10
   0  10  11  475.55   16.60
   0 -10 -11  452.45    9.50
   0 -10  11  452.45   11.50
   1  10 -11   59.09   12.10
  -1  10  11   59.29   10.20
  -1  10  11   63.79   13.60
  -1  10 -11   51.99   11.90
  -1  10 -11   59.69   10.30
  -1 -10 -11   44.80   10.20
   1  10 -11   62.19   10.70
   1 -10 -11   58.09   12.00
  -1  10 -11   52.39    9.60
  -1 -10 -11   83.89   14.10
  -1 -10  11   48.70    8.80
  -2 -10 -11  412.96   12.60
  -2  10 -11  440.86   14.70
   2 -10 -11  433.86   13.00
  -2  10  11  444.96   11.00
  -2  10 -11  442.76   10.50
  -2 -10  11  428.86   13.10
  -2 -10 -11  426.66   19.70
   2  10 -11  443.06   15.60
  -2  10  11  459.35   19.60
  -3  10 -11   32.10   10.70
   3  10 -11   29.20   13.80
  -3  10  11   24.90   17.30
   3 -10 -11   35.90   11.70
  -3 -10 -11   28.50   11.20
  -3  10  11   33.80    7.70
  -3 -10  11   29.90   11.70
  -3  10 -11   33.40    8.40
   4  10 -11   85.19   13.40
  -4  10 -11   84.89   13.30
   4 -10 -11   85.29   12.50
  -4  10  11   96.39   18.60
  -4 -10  11   89.99   11.40
  -4 -10 -11   90.19   12.60
  -4  10  11   77.59    9.70
  -4  10 -11   81.19    9.10
   5 -10 -11   22.60   10.70
  -5  10 -11   30.70   14.90
  -5  10  11   15.20   19.10
   5  10 -11   17.30   13.50
  -5 -10 -11   35.40   12.50
  -5 -10  11   18.40    8.90
  -5  10  11   18.40   10.00
  -5  10 -11   19.20    9.00
   6 -10 -11    6.50   13.60
  -6  10  11    5.80   17.90
  -6  10 -11   13.70   12.60
  -6 -10 -11   -2.60   10.60
   6  10 -11    3.00   13.90
  -6  10  11    6.30   10.00
  -6  10 -11   -1.30    8.00
  -6 -10  11   -2.20   11.30
  -7  10  11   16.00   11.40
   7 -10 -11   21.40   15.50
   7  10 -11   11.00   16.70
  -7  10  11   11.50   15.70
  -7 -10 -11    8.60   11.00
  -7 -10  11    8.80   12.20
  -7  10 -11    4.60   14.10
  -7  10 -11    5.80    8.40
  -8 -10 -11    3.90   11.70
   8  10 -11    5.60   18.40
   8 -10 -11    2.10   18.40
  -8  10  11   13.90   17.00
  -8 -10  11   10.00   13.50
  -8  10  11   -1.90   12.80
  -8  10 -11    1.00    9.40
  -8  10 -11    6.70   15.80
   1  11 -11  671.13   15.70
  -1  11  11  684.63   16.80
  -1  11 -11  655.83   14.50
  -1  11  11  690.73   11.80
   1  11 -11  666.03   14.50
   1 -11 -11  673.63   13.90
  -1  11 -11  684.53   11.00
  -1 -11 -11  667.73   18.80
  -1 -11 -11  638.54   13.20
  -1 -11  11  612.44   13.10
  -1  11 -11  671.63   13.30
  -2  11  11    4.10   10.20
   2  11 -11    2.70   12.40
  -2  11 -11    1.30    9.50
  -2 -11 -11    1.10   19.50
   2  11 -11   -0.90   13.50
  -2  11 -11    4.20   10.40
  -2 -11 -11    1.70   20.80
   2 -11 -11    0.50   10.70
  -2 -11  11   -1.70   12.10
  -2  11  11    6.20   17.50
  -2 -11 -11   -3.10   11.40
  -3  11  11  106.19   10.40
   3  11 -11   96.99   16.00
  -3  11 -11  116.69   13.80
  -3  11  11  104.79   17.60
   3 -11 -11   94.49   12.00
  -3  11 -11   98.49    9.20
  -3 -11 -11   98.49   12.50
  -3 -11  11  107.19   12.30
  -4  11  11   73.59   10.70
  -4  11 -11   63.39    9.60
  -4  11 -11   66.39   14.60
   4 -11 -11   81.89   10.40
  -4  11  11   88.29   15.50
  -4 -11 -11   75.79   12.80
  -4 -11  11   79.39   11.80
   4  11 -11   79.29   15.40
  -5 -11  11  596.94   13.10
  -5 -11 -11  616.64   13.10
  -5  11  11  599.54   20.60
  -5  11  11  603.34   10.70
   5 -11 -11  607.74   13.20
  -5  11 -11  615.24   14.80
   5  11 -11  581.94   19.00
  -5  11 -11  557.14   10.10
  -6 -11  11   -0.10   11.80
  -6  11  11   -6.30   19.00
   6  11 -11    3.80   17.70
  -6 -11 -11   16.10   13.00
   6 -11 -11   -9.70   13.50
  -6  11 -11   -9.10   13.30
  -6  11  11   -0.30   10.90
  -6  11 -11   -4.80    8.40
  -7  11  11    8.10   19.70
   7 -11 -11   13.60   12.70
   7  11 -11    8.40   19.00
  -7 -11 -11    9.90   13.80
  -7  11 -11   16.60   18.60
  -7  11  11   16.60   12.50
  -7  11 -11   12.00    8.90
  -7 -11  11    7.50   12.40
   0  12 -11  131.79   12.20
   0  12 -11  135.19   12.60
   0  12  11  135.39   15.90
   0 -12 -11  131.99   14.10
   0 -12 -11  116.59   10.30
   0 -12  11  126.19   11.40
  -1  12  11   33.60    9.30
  -1  12 -11   39.30   12.30
   1  12 -11   32.30   14.30
  -1  12  11   38.80   15.40
  -1  12 -11   41.60   10.90
  -1 -12 -11   35.30   15.80
   1 -12 -11   31.20   12.70
  -1  12 -11   30.30    8.40
   1  12 -11   29.60   11.60
  -1 -12 -11   34.10    8.60
  -1 -12  11   20.40   11.70
   2  12 -11  168.98   13.80
  -2  12  11  167.88   16.50
  -2  12  11  180.98   11.40
  -2  12 -11  176.18   13.80
   2 -12 -11  171.58   11.90
  -2  12 -11  172.18   10.40
  -2 -12 -11  163.38   12.00
  -2 -12  11  179.48   12.70
   2  12 -11  170.58   15.20
   3  12 -11   12.70   14.50
  -3 -12  11   13.80   12.30
   3  12 -11   13.70   15.70
  -3  12 -11   25.60   14.70
   3 -12 -11    6.60   11.60
  -3  12  11   17.00   10.80
  -3  12 -11   16.00    9.90
  -3  12  11    3.50   16.40
  -3 -12 -11    3.80   12.60
  -4  12  11  108.59    9.10
  -4 -12  11  100.49   11.90
   4 -12 -11  106.99   12.80
  -4  12 -11  112.29   13.10
  -4  12  11  110.79   18.50
   4  12 -11   96.89   16.20
  -4 -12 -11   98.69   10.70
  -4  12 -11   95.29    8.20
  -5  12  11   -7.70   19.40
  -5 -12  11    2.70   11.60
  -5  12  11   -1.00   10.90
  -5 -12 -11   -2.60   13.50
   5 -12 -11    2.70   13.10
  -5  12 -11   -6.40   15.40
  -5  12 -11    1.80   10.10
   5  12 -11    0.90   18.90
   6 -12 -11   22.10   14.20
   6  12 -11    1.90   22.20
  -6  12 -11    9.80   10.70
  -6  12  11    1.10   19.80
  -6  12 -11    8.20   14.50
  -6 -12 -11    5.20   13.40
  -6 -12  11   -7.20   12.10
  -6  12  11    7.40   11.60
   7 -12 -11   11.60   16.10
  -7  12  11   -2.30   21.30
  -7 -12 -11    8.40   14.10
  -7 -12  11    4.30   10.60
  -7  12 -11   -9.30   19.80
  -7  12  11    2.70   13.10
  -7  12 -11    6.50   11.40
  -1  13  11  100.89   11.80
   1  13 -11  104.49   14.30
  -1 -13 -11  102.79   21.10
   1  13 -11  100.29   13.70
  -1  13 -11  113.59   12.40
   1 -13 -11  112.49   12.80
  -1  13  11  115.49   15.90
  -1  13 -11  119.59    9.40
  -1 -13 -11   96.69    9.30
  -1 -13  11   99.09   12.30
  -1  13 -11  105.09   11.60
   2  13 -11   -0.80   14.50
   2 -13 -11   12.50   11.40
  -2  13 -11   12.30   13.40
  -2  13  11    5.70   11.10
  -2  13 -11   -7.90    9.80
   2  13 -11    2.10   14.40
  -2  13 -11   -5.40   11.60
  -2 -13 -11    0.70    9.50
  -2 -13  11    7.50   11.60
  -2  13  11    6.40   15.40
   3  13 -11  260.77   18.10
   3  13 -11  298.27   19.00
  -3 -13  11  315.07   13.10
   3 -13 -11  316.57   13.20
  -3  13 -11  319.97   15.60
  -3  13  11  304.57   11.80
  -3  13 -11  297.77   11.00
  -3 -13 -11  298.57   13.70
  -3  13  11  315.27   18.50
  -4  13  11   11.60   11.30
   4  13 -11    1.80   18.40
   4 -13 -11    6.60   12.50
  -4  13 -11   11.50   16.00
  -4  13  11   -8.10   19.10
  -4  13 -11   -0.40   10.50
  -4 -13 -11   12.70   12.90
  -4 -13  11   -4.70   12.10
   4  13 -11    5.70   18.80
  -5 -13 -11   -7.80   13.50
   5 -13 -11    0.00   11.00
  -5  13 -11    3.20   14.00
  -5  13  11   18.20   18.80
  -5  13  11    2.20    9.30
  -5 -13  11   14.90    9.60
  -5  13 -11    4.90   10.60
  -6  13 -11   14.90   11.90
   6 -13 -11   30.20   15.10
  -6  13 -11   25.60   19.10
  -6 -13 -11   19.40   14.60
  -6 -13  11   14.30   12.70
  -6  13  11   28.40   10.50
   0 -14 -11   75.59   15.60
   0  14 -11   80.39   12.50
   0  14  11   77.59   18.10
   0  14 -11   79.89   14.40
   0 -14 -11   72.69   10.90
   0 -14  11   76.69   12.10
   1  14 -11    3.00   14.40
   1 -14 -11    8.50   12.60
   1  14 -11   -0.80   13.70
  -1  14  11    0.20   15.40
  -1  14 -11    8.20   12.90
  -1  14 -11    0.40   12.10
  -1 -14  11    3.30   12.10
  -1 -14 -11    6.80   11.10
  -2  14  11   18.20   15.60
   2 -14 -11    6.60   13.30
   2  14 -11   11.80   15.50
  -2  14 -11   20.50   13.90
   2  14 -11   12.30   17.00
  -2  14  11   24.50   11.90
  -2 -14  11   26.30   12.20
  -2  14 -11   21.30   12.50
  -2  14 -11   17.50   10.90
  -2 -14 -11   16.70   12.30
   3  14 -11   10.20   20.10
  -3  14  11   16.10   11.60
   3 -14 -11   16.20   14.10
   3  14 -11    6.80   18.10
  -3  14 -11    8.60   15.00
  -3 -14 -11   12.30   13.20
  -3 -14  11   11.70   12.30
  -3  14  11    8.90   17.10
  -3  14 -11   13.10   10.90
  -4 -14  11    2.30   12.20
   4 -14 -11   22.40   15.10
  -4  14 -11    8.90   12.90
  -4  14 -11    2.60   10.70
  -4  14  11    6.40   19.00
  -4 -14 -11    6.60   13.50
  -4  14  11   14.90   11.80
  -5  14 -11  -12.70   17.80
   5 -14 -11    7.90   13.80
  -5  14  11    6.30   12.70
  -5  14 -11   -3.10   11.30
  -5 -14 -11    4.50   14.20
  -5 -14  11  -12.10   12.50
   6 -14 -11   -8.10   12.90
  -6 -14 -11    2.30   14.70
  -6  14  11   -1.10   13.50
  -6  14 -11   10.50   12.20
  -6 -14  11    5.60   13.60
  -1 -15  11    2.60   13.20
   1 -15 -11    8.10   14.50
   1  15 -11    6.10   16.20
  -1  15 -11    5.10   13.40
  -1  15 -11    9.10   14.40
  -1  15  11    2.50   16.20
  -1 -15 -11   -0.80   12.20
   1  15 -11    4.20   17.40
  -2  15  11    1.70   12.50
  -2  15  11   10.60   18.00
   2 -15 -11    6.10   13.50
   2  15 -11    6.60   18.40
   2  15 -11   -0.50   17.20
  -2  15 -11    5.40   14.30
  -2  15 -11   -3.10   14.80
  -2 -15 -11    7.80   10.40
  -2 -15  11    6.20   12.70
  -2  15 -11    6.70    9.30
   3 -15 -11   15.40   14.70
  -3  15  11    0.80   12.60
  -3  15 -11   18.40   11.50
  -3 -15  11   -1.70   10.30
  -3 -15 -11   12.50   13.50
  -3  15 -11    6.20   14.80
  -3  15  11    0.50   17.10
  -4  15  11   -4.40   13.10
   4 -15 -11    9.90   13.80
  -4  15 -11    5.70   16.20
  -4  15 -11    4.30   11.60
  -4 -15 -11    5.10   13.90
  -4 -15  11    0.00   13.00
  -4  15  11  -11.40   19.20
  -5  15 -11   10.60   18.40
  -5  15 -11    1.20   10.20
   5 -15 -11   12.40   14.80
  -5  15  11    1.70   13.70
  -5 -15 -11    2.90   12.20
  -5 -15  11    3.10   13.30
   0  16 -11   63.29   16.40
   0  16 -11   64.49   15.90
   0 -16 -11   67.89   12.40
   1 -16 -11    2.30   16.70
  -1  16 -11   -0.90   15.10
  -1  16  11    1.40   20.60
  -1  16 -11    6.60   16.20
  -1 -16  11    3.10   13.40
   1  16 -11    4.30   20.00
  -1 -16 -11    2.00   12.90
   1  16 -11   -2.30   17.10
  -2  16 -11   21.40   12.70
  -2  16  11   15.90   11.40
   2 -16 -11   15.10   16.30
  -2  16 -11    7.00   13.70
   2  16 -11   14.40   24.40
  -2 -16  11   16.20   11.10
  -2  16  11   19.90   18.40
  -2  16 -11   12.70   14.60
  -2 -16 -11   10.10   13.60
   2  16 -11   12.00   24.70
  -3 -16  11   13.30   13.50
   3 -16 -11    2.20   13.20
  -3  16 -11   10.50   14.10
  -3  16 -11   -2.00   12.80
  -3  16  11   -2.10   17.50
  -3  16 -11    2.80   18.20
  -3  16  11   -7.40   11.50
  -3 -16 -11   10.60   14.50
   4 -16 -11   25.70   16.60
  -4  16  11    7.60   23.00
  -4  16 -11   19.30   18.00
  -4  16  11   11.90   14.20
  -4 -16 -11   12.90   12.00
  -4 -16  11   11.60   13.50
  -4  16 -11   11.60   10.60
   1  17 -11    5.60   23.10
  -1  17  11   -2.00   22.50
   1  17 -11    2.90   21.60
  -1  17 -11    6.70   19.00
  -1 -17  11   10.00   11.60
  -1  17 -11    9.20   16.40
  -1 -17 -11    1.50   13.50
   2 -17 -11    8.30   17.10
  -2  17 -11   12.60   15.60
  -2  17  11    1.40   19.10
  -2  17 -11   -2.10   16.60
  -2 -17 -11   10.70   11.60
  -2 -17  11    4.00   14.10
   3 -17 -11   41.00   16.50
  -3  17 -11   37.00   11.70
   0   0 -12  297.07   12.30
   0   0  12  299.77   13.80
  -1   0  12 2934.11   24.00
   1   0 -12 2931.61   23.80
  -1   0 -12 3050.69   42.90
  -1   0 -12 2791.52   22.20
  -2   0  12   67.09   10.90
  -2   0 -12   60.19   10.30
   2   0 -12   62.99   11.00
  -3   0 -12 1067.79   13.10
   3   0 -12 1027.20   15.40
  -3   0  12 1052.29   16.50
  -4   0 -12   11.30    8.70
   4   0 -12   16.00   10.10
  -4   0  12   13.50   11.60
  -5   0 -12  580.14   11.20
   5   0 -12  532.95   15.10
  -5   0  12  563.64   14.20
   6   0 -12   27.40   13.50
  -6   0 -12   14.20   11.30
  -6   0  12   14.30    9.80
  -7   0 -12   79.59   12.80
   7   0 -12   65.09   11.50
  -7   0  12   76.49   12.90
   8   0 -12   47.20   15.30
  -8   0 -12   62.89   13.60
  -8   0  12   53.79   13.30
   9   0 -12   70.59   16.40
  -9   0 -12   98.49   15.40
  -9   0  12   84.29   12.30
  -1  -1  12   18.00   13.10
  -1   1 -12    7.40    9.80
  -1  -1 -12    7.50   20.00
  -1   1 -12    7.00   16.10
   1  -1 -12   10.70   11.60
  -1  -1 -12   13.30   12.60
   1   1 -12    5.10   11.10
  -1   1  12   10.00   11.30
  -2   1 -12   10.80    9.40
   2  -1 -12   19.70   13.00
  -2   1  12   18.10   13.40
   2   1 -12   20.20   12.90
  -2  -1 -12   14.50   12.30
  -2  -1  12   18.00   12.80
  -3  -1 -12  451.45   11.70
  -3   1 -12  475.45   12.40
  -3   1  12  437.06   14.70
   3  -1 -12  438.06   13.10
   3   1 -12  431.36   14.50
  -3  -1  12  444.66   11.90
  -3  -1 -12  448.76   13.60
  -4  -1  12   95.89   12.20
  -4  -1 -12  104.19    9.90
  -4   1 -12  107.79    9.20
  -4   1  12  101.19   10.60
   4  -1 -12   94.09   11.40
   4   1 -12   95.69   11.00
  -5  -1 -12   73.39   10.80
  -5   1 -12   76.89   11.00
  -5  -1  12   83.59   11.60
  -5   1  12   63.79   10.40
   5  -1 -12   67.19   13.80
   5   1 -12   70.49   12.40
  -6   1 -12   93.69   11.60
  -6  -1 -12  108.99   11.50
   6  -1 -12   98.29   11.60
   6   1 -12   95.79   13.30
  -6   1  12   98.69   12.90
  -6  -1  12   93.69   12.00
  -7   1 -12  322.27   13.10
  -7  -1 -12  306.27   12.80
   7  -1 -12  299.77   14.70
   7   1 -12  283.37   12.10
  -7   1  12  313.87   14.20
  -7  -1  12  301.37   13.30
   8  -1 -12   77.79   15.60
   8   1 -12   73.79   14.50
  -8   1 -12   72.19   13.00
  -8  -1 -12   82.19   13.50
  -8  -1  12   76.49   11.10
   9   1 -12   28.50   12.80
   9  -1 -12   35.40   16.90
  -9  -1 -12   35.30   15.20
  -9   1 -12   27.00   15.00
  -9   1  12   43.70   12.60
  -9  -1  12   35.60   12.40
   0   2 -12  161.48   12.80
   0   2  12  131.99   10.90
   0  -2 -12  151.68   15.10
  -1   2  12 2892.61   23.60
  -1  -2  12 3006.90   23.40
  -1  -2 -12 2850.61   23.10
   1  -2 -12 3113.39   26.40
  -1   2  12 3170.18   43.10
  -1  -2 -12 3146.39   36.10
  -1   2 -12 3206.98   33.90
  -1  -2  12 3201.78   40.70
  -1   2 -12 2839.52   19.80
   1   2 -12 2959.00   21.60
  -2  -2  12  341.87   14.30
  -2  -2 -12  300.37   13.80
  -2   2  12  328.17   13.50
   2  -2 -12  324.87   13.10
  -2   2 -12  313.57   12.40
   2   2 -12  321.07   13.70
  -2   2  12  328.17   13.00
  -2   2 -12  325.97   10.40
   3  -2 -12 1415.96   17.50
  -3   2 -12 1464.95   14.60
   3   2 -12 1407.36   17.80
  -3  -2  12 1390.06   15.80
  -3  -2 -12 1366.86   18.20
  -3   2  12 1428.26   18.80
   4   2 -12  124.29   13.10
  -4  -2 -12  135.89   10.20
  -4   2 -12  130.09    9.10
  -4  -2  12  124.09   12.00
  -4   2  12  125.99   10.70
   4  -2 -12  135.69   14.80
  -5  -2  12   56.29   11.20
  -5   2 -12   67.39    9.30
  -5  -2 -12   62.99   10.60
  -5   2  12   72.49   10.70
   5  -2 -12   55.99   14.80
   5   2 -12   51.29   10.10
  -6  -2  12   15.00   12.10
  -6   2 -12   17.30    9.50
  -6  -2 -12   20.90   11.10
   6  -2 -12   13.40   14.90
  -6   2  12   27.90   10.80
   6   2 -12   20.70   13.10
   7   2 -12    7.20   13.40
  -7   2 -12   20.30   12.40
  -7  -2 -12   15.90   11.60
   7  -2 -12   16.90   11.90
  -7   2  12   20.60   13.20
  -7  -2  12   23.10   12.40
   8  -2 -12    5.20   15.80
   8   2 -12    5.90   13.70
  -8   2 -12   12.30   13.60
  -8  -2 -12    7.10   13.00
  -8  -2  12    9.20   13.20
  -9  -2  12  171.28   15.40
   9  -2 -12  158.78   14.70
   9   2 -12  172.38   13.90
  -9   2 -12  189.18   16.60
  -9  -2 -12  162.58   17.90
   1   3 -12 1219.88   16.80
  -1  -3 -12 1227.98   19.80
   1  -3 -12 1289.77   20.20
  -1   3  12 1317.27   25.50
  -1  -3  12 1272.07   17.70
  -1  -3 -12 1286.07   21.40
  -1   3  12 1187.58   19.90
  -1  -3  12 1259.77   23.40
  -1   3 -12 1182.28   14.00
  -1   3 -12 1309.37   20.40
  -2   3  12  105.79   16.40
   2  -3 -12  118.59   12.00
  -2  -3  12  118.99   15.20
  -2  -3  12  117.49   10.60
   2   3 -12  127.19   12.20
  -2  -3 -12  113.99   13.40
  -2   3 -12  106.39    9.70
  -2   3  12  112.19   10.60
  -2   3 -12  114.19    9.00
  -3   3 -12  112.69    9.60
   3   3 -12  106.89   12.30
   3  -3 -12  110.89   12.40
  -3  -3 -12  111.09   12.70
  -3  -3  12  107.49    9.50
  -3   3  12  113.59   15.10
  -3   3  12  118.79    9.60
   4   3 -12    5.80    9.30
  -4  -3 -12   10.60    9.60
  -4   3 -12    7.60   10.30
  -4  -3 -12    8.00   12.60
  -4  -3  12    5.10   10.50
  -4   3  12    7.40   10.90
   4  -3 -12    5.40   11.20
   5  -3 -12  441.86   16.30
  -5   3 -12  495.95   13.20
  -5  -3 -12  475.95   12.00
  -5  -3  12  488.35   12.70
  -5   3  12  487.75   15.10
   5   3 -12  457.65   11.90
   6   3 -12   30.70   12.70
  -6  -3  12   39.30   11.60
  -6   3 -12   40.30   11.80
  -6  -3 -12   38.50   10.60
   6  -3 -12   43.00   12.60
  -6   3  12   36.50   13.50
  -7  -3  12   -0.50   11.90
  -7   3 -12    7.30   12.80
   7  -3 -12    8.00   15.80
   7   3 -12    8.30   13.40
  -7   3  12   15.50   14.00
  -7  -3 -12    9.70   11.60
  -8  -3  12   16.00   12.90
  -8   3 -12    6.30   11.50
   8  -3 -12   15.20   16.30
   8   3 -12    5.50   13.90
  -8  -3 -12    3.90   12.90
  -8   3  12    8.40   11.70
  -9  -3  12   61.69   15.10
   9  -3 -12   49.30   15.10
   9   3 -12   56.69   15.70
  -9  -3 -12   54.49   14.50
  -9   3 -12   64.09   16.30
   0   4  12  486.95   14.80
   0  -4 -12  524.65   17.00
   0   4 -12  494.05   11.60
   0  -4 -12  529.55   13.60
  -1   4 -12 1595.44   15.40
   1   4 -12 1603.84   17.30
   1  -4 -12 1647.64   20.30
  -1   4  12 1516.05   20.50
  -1   4 -12 1713.23   20.50
  -1  -4 -12 1671.73   21.30
  -1   4  12 1773.72   23.60
  -1  -4  12 1667.73   22.60
  -1  -4 -12 1699.93   21.50
  -2   4 -12  382.76   11.00
  -2   4  12  427.26   19.10
   2  -4 -12  382.36   13.10
  -2  -4  12  429.36   13.60
  -2  -4 -12  403.36   15.20
  -2  -4 -12  374.96   14.50
  -2  -4  12  380.06   16.30
   2   4 -12  387.46   13.10
  -2   4  12  412.56   12.40
  -2   4 -12  400.26   10.40
  -3  -4 -12  994.00   17.60
  -3  -4  12  993.30   14.70
   3   4 -12  938.61   15.10
  -3   4 -12 1019.80   15.10
  -3   4  12  958.10   18.90
  -3   4  12  980.70   12.80
   3  -4 -12  976.30   17.20
  -3   4 -12  943.91   11.70
  -4  -4 -12  149.49   14.70
   4   4 -12  128.59   11.90
  -4  -4 -12  149.59   10.30
  -4   4 -12  148.79    9.40
  -4   4  12  150.48   14.80
  -4  -4  12  133.49   11.20
   4  -4 -12  126.29   11.50
  -4   4  12  136.39    8.30
  -5   4 -12  339.47   12.60
  -5  -4 -12  337.17   11.50
  -5  -4 -12  354.16   14.70
  -5  -4  12  314.07   11.70
  -5   4  12  346.27   15.10
   5  -4 -12  333.77   15.40
   5   4 -12  313.67   12.60
  -6  -4  12   30.30   11.10
  -6   4 -12   42.20    9.90
  -6  -4 -12   35.80   12.50
   6  -4 -12   22.90   12.80
  -6   4  12   37.30   14.30
   6   4 -12   36.40   12.60
  -7  -4  12   42.80   12.10
  -7   4 -12   42.40   10.70
   7  -4 -12   40.10   14.00
  -7  -4 -12   35.90   11.50
  -7   4  12   32.90   12.30
   7   4 -12   35.90   13.50
  -8  -4 -12   11.10   15.30
  -8  -4  12   13.10   13.00
   8  -4 -12   19.70   17.40
   8   4 -12    1.60   13.90
  -8   4 -12    5.40   14.30
  -8   4  12    2.40   12.60
  -9  -4  12   49.40   14.80
  -9   4 -12   91.29   17.10
   9  -4 -12   59.29   15.70
   9   4 -12   56.79   15.60
  -9  -4 -12   57.99   17.40
   1  -5 -12  177.48   13.90
   1   5 -12  183.18   11.50
  -1   5  12  167.08   12.60
  -1   5 -12  177.08    9.80
  -1   5  12  191.98   13.40
  -1   5 -12  181.68   11.30
  -1  -5 -12  181.58   14.40
  -1  -5  12  173.88   13.10
  -1  -5 -12  185.38   12.00
   2  -5 -12   72.89   13.10
  -2   5  12   66.99   18.60
  -2   5 -12   81.19   11.60
  -2  -5 -12   75.29   15.60
  -2  -5  12   73.49    9.90
  -2   5 -12   73.39    9.70
   2   5 -12   64.69    9.60
  -2   5  12   78.19   10.60
  -2  -5 -12   76.19   13.70
  -2  -5  12   75.89   14.40
  -3  -5 -12  264.37   13.60
  -3  -5  12  272.07   12.90
   3  -5 -12  256.37   12.00
  -3   5 -12  263.47   12.30
   3   5 -12  257.67   10.30
  -3  -5  12  266.27   12.10
  -3  -5 -12  271.67   13.80
  -3   5  12  267.27   17.60
  -3   5  12  258.07    9.50
  -3   5 -12  252.17    8.40
   4  -5 -12   20.30   13.70
   4   5 -12   14.40   11.90
  -4  -5  12   15.70   10.90
  -4  -5 -12   14.50   10.50
  -4   5 -12   20.30   11.50
  -4  -5 -12   11.70   13.70
  -4   5  12    3.80   16.00
  -4   5  12   11.90    7.60
  -4   5 -12   13.30    7.20
  -5   5 -12   18.00    9.50
  -5  -5 -12    8.60   11.90
   5  -5 -12    6.10   11.40
  -5   5  12   12.80    9.30
  -5   5  12   19.40   14.70
  -5  -5  12   16.40   10.90
   5   5 -12   16.10   11.90
  -5  -5 -12   10.70   14.90
  -5   5 -12   12.70    7.60
  -6   5  12   72.49    9.00
  -6  -5 -12   83.69   16.10
  -6   5 -12   80.19   10.70
  -6  -5 -12   80.69   12.50
  -6  -5  12   76.79   11.30
   6  -5 -12   72.29   12.60
   6   5 -12   73.89   14.30
  -6   5  12   77.39   14.90
  -7  -5 -12   99.69   14.80
  -7   5 -12  108.29   13.60
   7  -5 -12   95.79   16.90
  -7  -5  12   87.99   12.00
  -7   5  12   98.99   15.60
  -7  -5 -12   99.89   12.20
   7   5 -12  110.19   13.40
  -8  -5 -12   23.40   18.00
   8  -5 -12   10.40   15.40
   8   5 -12   13.60   13.80
  -8  -5  12   17.70   15.10
  -8   5 -12   25.70   14.90
  -8  -5 -12   25.50   15.40
  -8   5  12   16.90   13.00
  -9   5  12   -1.30   12.90
  -9  -5 -12   17.90   16.90
   9  -5 -12   25.80   15.00
   9   5 -12    8.00   15.10
  -9  -5  12   16.30   14.90
  -9   5 -12   21.30   17.10
  -9  -5 -12   22.40   15.10
   0   6  12  214.88   13.00
   0   6 -12  223.88   11.80
   0  -6 -12  226.98   14.00
   0  -6 -12  220.68    9.70
   0  -6  12  226.28   10.40
   1  -6 -12  874.61   15.70
  -1   6  12  978.50   15.80
   1   6  12  901.61   16.80
  -1   6  12  879.31   18.10
   1   6 -12  853.91   14.40
  -1  -6 -12  956.50   19.80
  -1   6 -12  909.71   14.10
  -1   6 -12  921.91   15.20
  -1  -6 -12  901.21   15.60
  -1  -6  12  875.11   15.40
  -2  -6 -12   43.30   11.20
  -2   6 -12   27.80    9.50
  -2   6  12   30.20    9.20
  -2   6 -12   37.30    8.40
  -2  -6  12   31.10   14.00
  -2  -6 -12   40.50   15.50
   2   6 -12   37.20    9.30
   2  -6 -12   31.20   12.30
  -2   6  12   40.50   18.90
  -3  -6 -12  252.57   12.10
  -3   6 -12  250.77   10.30
  -3  -6 -12  255.87   16.00
   3  -6 -12  255.97   13.30
   3   6 -12  253.67   12.10
  -3  -6  12  248.78   14.00
  -3  -6 -12  253.27   13.10
  -3   6  12  261.67   18.10
  -3   6 -12  253.17    8.80
  -3   6  12  262.77   10.70
  -3  -6  12  266.17   11.80
  -4  -6  12  162.68   10.90
  -4  -6 -12  155.38   12.00
  -4   6  12  146.79   14.30
  -4   6 -12  156.88   12.50
   4   6 -12  149.29   11.80
   4  -6 -12  152.08   13.60
  -4  -6 -12  169.28   15.70
  -4  -6  12  150.58   12.80
  -4   6  12  159.58    8.70
  -4   6 -12  135.29    8.10
   5  -6 -12   54.99   14.20
  -5   6  12   69.69   16.00
  -5  -6  12   64.39   12.40
  -5  -6 -12   72.79   15.50
  -5   6 -12   75.49   12.70
  -5  -6 -12   69.79   12.40
   5   6 -12   64.99   11.40
  -5   6  12   65.79    8.50
  -5   6 -12   62.59    8.50
  -6  -6 -12   80.29   15.00
  -6   6 -12   72.29   11.10
  -6  -6 -12   70.49   12.60
   6  -6 -12   80.29   12.90
  -6   6  12   83.69   12.90
   6   6 -12   80.49   12.40
  -6  -6  12   67.79   11.40
  -6   6  12   71.29    9.40
  -6   6 -12   58.79    8.30
   7   6 -12   15.10   12.80
  -7   6  12    9.20   13.20
  -7  -6 -12    1.70   15.80
   7  -6 -12    9.80   16.50
  -7   6 -12    5.60   14.00
  -7  -6 -12   11.20   13.60
  -7  -6  12    7.10   14.00
  -7   6  12   -1.30   10.00
  -7   6 -12   10.40    7.00
   8  -6 -12   24.30   18.50
   8   6 -12   25.30   13.90
  -8  -6 -12   31.20   17.60
  -8   6 -12   25.70   16.00
  -8  -6  12   27.70   13.00
  -8  -6 -12   26.80   17.30
  -8   6  12   16.60   11.30
  -8   6 -12   19.40   10.00
  -9  -6 -12    8.40   18.00
  -9   6  12   11.30   15.30
  -9  -6  12   10.70   17.00
   9  -6 -12   15.60   21.10
  -9  -6 -12   25.30   19.20
   9   6 -12   11.80   15.10
  -9   6 -12    8.30   14.90
  -9   6  12    2.90   13.50
  -9   6 -12  -10.00   11.90
  -1   7 -12  110.79   10.40
   1   7  12   93.09   11.20
  -1   7  12   83.39   14.40
  -1  -7 -12   97.39   14.60
   1   7 -12   92.79   10.80
  -1   7  12   99.99   12.60
  -1   7 -12   95.59    9.70
  -1   7 -12   97.69    9.30
  -1  -7 -12   93.59   10.10
  -1  -7  12   92.79   12.50
   1  -7 -12   87.39   11.60
  -2   7 -12   11.10    9.70
  -2  -7  12   17.90   11.40
  -2  -7 -12   17.90   13.90
  -2  -7 -12   14.70   10.50
  -2   7 -12   17.70    8.10
  -2   7  12   17.80    8.90
   2   7 -12   18.30   11.20
   2  -7 -12   21.00   11.50
  -2   7  12   25.10   19.10
  -3  -7 -12   -0.30   11.40
  -3   7 -12    3.80   11.80
  -3   7  12    6.90   14.30
  -3  -7  12    5.50   11.40
   3   7 -12   10.10   11.90
  -3  -7 -12    0.70   11.40
   3  -7 -12    3.40   12.00
  -3   7  12   -0.80    8.60
  -3   7 -12    0.80    7.70
  -3  -7 -12    7.80   15.10
  -4  -7  12  202.48   13.30
   4   7 -12  197.88   12.40
  -4  -7  12  195.68   11.30
  -4  -7 -12  196.68   17.00
  -4  -7 -12  190.08   13.30
  -4   7 -12  214.88   12.90
  -4  -7 -12  212.08   12.80
  -4   7  12  209.78   17.80
   4  -7 -12  200.68   11.10
  -4   7  12  197.78   10.30
  -4   7 -12  192.28    8.40
  -5   7 -12   28.20   12.70
  -5  -7 -12   27.50   13.50
  -5  -7  12   25.40   10.90
   5  -7 -12   24.60   13.50
  -5   7  12    6.70   16.70
  -5  -7 -12   18.40   16.10
   5   7 -12   20.40   11.60
  -5   7  12   17.10    9.10
  -5   7 -12   12.90    8.00
  -5  -7  12   27.10   12.30
  -6   7 -12   29.00   14.00
  -6  -7  12   15.60   11.40
   6  -7 -12   21.00   14.60
  -6  -7 -12   26.30   14.40
  -6   7  12   17.70   16.40
  -6   7  12   15.90    9.40
  -6   7 -12    8.10    8.30
  -6  -7 -12   15.60   14.90
   6   7 -12   29.70   12.10
   7   7 -12   65.19   15.00
  -7  -7  12   66.59   14.20
  -7  -7 -12   69.19   17.80
   7  -7 -12   58.59   16.70
  -7   7 -12   52.79   15.00
  -7   7  12   65.19   17.00
  -7   7  12   52.19    8.90
  -7  -7 -12   70.69   14.10
  -7   7 -12   61.89    9.30
  -8  -7  12   69.19   13.90
   8  -7 -12   75.49   15.40
   8   7 -12   87.19   16.30
  -8  -7 -12   75.19   19.70
  -8   7 -12   96.89   13.70
  -8   7  12   74.99   18.00
  -8  -7 -12   73.69   18.20
  -8   7  12   50.79   12.00
  -8   7 -12   39.70   10.70
   0  -8  12  143.89   10.00
   0   8  12  135.59   14.10
   0   8 -12  134.49   11.00
   0  -8 -12  142.99    8.80
   0  -8 -12  137.09   13.10
   1  -8 -12  128.79   11.90
  -1   8 -12  133.59   10.20
  -1   8  12  145.29   11.10
  -1  -8 -12  125.59   13.20
   1   8  12  135.59   13.50
  -1   8  12  136.49   15.00
   1   8 -12  131.09   11.30
  -1   8 -12  136.49    9.10
  -1   8 -12  143.19   10.10
  -1  -8 -12  131.89   10.00
  -1  -8  12  130.49   10.70
  -2  -8  12    3.80   13.80
  -2   8 -12    7.20   11.70
  -2  -8 -12   -1.60   16.30
  -2   8  12    3.10   10.40
  -2   8 -12    8.80    9.70
   2  -8 -12    0.40    9.60
   2   8 -12    3.00   11.30
  -2   8  12    7.90   18.10
  -2  -8 -12    5.30   10.80
  -3  -8 -12   76.09   12.50
  -3  -8  12   89.09   11.40
  -3   8 -12   84.49   12.90
   3   8 -12   76.49   13.20
  -3  -8 -12   81.49   11.90
   3  -8 -12   88.19   12.30
  -3   8  12   82.29   15.50
  -3   8  12   86.19    8.90
  -3   8 -12   84.49    8.30
  -3  -8 -12   96.09   16.60
   4   8 -12   87.59   12.00
  -4   8 -12   90.19   10.80
  -4  -8 -12   84.19   13.00
  -4  -8 -12   93.29   12.40
  -4  -8  12   82.49   11.40
   4  -8 -12   91.89   12.30
  -4   8  12   74.59   16.90
  -4   8  12   81.39    9.10
  -4   8 -12   84.99    6.80
  -4  -8 -12   86.09   17.80
  -5  -8 -12    2.10   15.40
  -5  -8 -12    3.30   18.30
  -5   8 -12    5.80   10.60
  -5  -8  12    6.90   12.80
   5  -8 -12   -0.50   10.80
  -5  -8 -12    4.80   12.70
  -5  -8  12    0.10   11.20
  -5   8  12    8.10   16.90
   5   8 -12    3.40   12.00
  -5   8  12    2.00    9.10
  -5   8 -12    2.80    8.10
  -6   8  12   -5.90   16.50
  -6   8  12    5.90    9.60
  -6  -8  12    1.40   11.80
  -6  -8 -12    4.70   16.90
  -6   8 -12    1.00   11.40
   6  -8 -12   -1.40   11.60
  -6  -8  12   -1.40    9.20
  -6  -8 -12    2.30   10.60
   6   8 -12   -1.80   14.50
  -6  -8 -12    3.50   16.20
  -6   8 -12    0.60    8.70
   7  -8 -12    0.30   16.00
  -7  -8  12   -1.20    9.70
  -7   8 -12   15.40   15.70
   7   8 -12    9.70   14.90
  -7   8  12  -15.20   17.40
  -7  -8 -12    6.70   19.40
  -7   8  12   -3.60   10.60
  -7  -8 -12    4.90   17.80
  -7   8 -12   13.40    9.60
  -7  -8  12    0.00   13.80
  -8  -8 -12   11.20   22.30
   8  -8 -12   16.30   15.30
   8   8 -12    6.70   13.60
  -8   8 -12   26.10   14.40
  -8  -8 -12    2.30   21.20
  -8  -8  12   12.10   13.60
  -8   8  12    0.20   11.90
  -8   8 -12    8.70   10.80
  -1   9 -12   30.40   12.40
  -1   9 -12   27.70    9.80
  -1   9  12   35.30   13.70
  -1   9 -12   31.60   11.00
   1   9 -12   32.30   12.70
  -1   9  12   25.10   10.70
   1  -9 -12   23.40   11.10
  -1  -9 -12   28.10    9.90
  -1  -9  12   28.00   10.80
  -1  -9 -12   27.20   13.50
  -2  -9 -12  104.89   14.60
  -2   9 -12  108.69   10.60
  -2   9  12  112.19   11.40
   2  -9 -12  105.09   11.80
  -2  -9  12  106.19   12.30
  -2  -9 -12  101.29   11.10
  -2   9 -12  107.89    9.10
   2   9 -12  112.39   11.30
  -2   9  12  123.09   16.40
  -3  -9 -12    6.30   14.50
  -3  -9 -12    1.70   18.10
  -3   9 -12    1.20   12.40
   3   9 -12    2.70   11.90
  -3  -9 -12   -2.30   11.20
   3  -9 -12   13.40   12.00
  -3  -9  12    2.40   11.90
  -3   9 -12    0.00    8.20
  -3   9  12    7.30    9.00
  -3   9  12    6.70   18.50
   4   9 -12  154.88   13.80
  -4   9 -12  142.39   13.60
  -4  -9 -12  154.28   20.70
  -4  -9 -12  154.38   16.40
  -4  -9  12  154.08   12.10
   4  -9 -12  149.19   13.00
  -4  -9 -12  168.08   12.90
  -4   9  12  152.78   18.30
  -4   9 -12  146.19    9.00
  -4   9  12  150.98   10.30
  -5  -9 -12   48.90   13.00
  -5   9 -12   50.49   11.60
   5  -9 -12   49.70   11.40
  -5  -9 -12   50.89   22.40
  -5   9  12   43.30    9.80
  -5   9  12   46.40   18.00
  -5  -9  12   45.00   11.30
  -5  -9 -12   47.80   19.80
  -5   9 -12   46.50    8.90
   5   9 -12   49.40   13.60
  -6  -9 -12  353.06   27.70
  -6  -9  12  364.96   13.90
   6  -9 -12  373.26   15.80
  -6   9 -12  373.96   16.10
  -6  -9 -12  350.26   14.30
  -6   9  12  348.67   16.00
  -6  -9  12  358.96   12.50
   6   9 -12  371.86   16.30
  -6  -9 -12  319.97   30.60
  -6   9  12  354.16   11.70
  -6   9 -12  334.97   10.30
  -7  -9  12   -6.30   14.50
   7  -9 -12    6.00   15.70
   7   9 -12    6.20   14.80
  -7  -9 -12   -5.40   13.50
  -7   9 -12    6.80   13.30
  -7  -9  12    3.60   12.30
  -7   9  12    9.50   14.90
  -7   9  12   -0.30   11.10
  -7   9 -12    0.60   10.00
  -8  -9  12   42.00   18.30
   8  -9 -12   52.99   15.30
   8   9 -12   55.09   16.60
  -8  -9  12   42.30   11.30
  -8  -9 -12   -9.20   15.00
  -8   9 -12   94.29   18.90
  -8   9  12   43.40   13.10
  -8   9 -12   29.60   11.60
   0  10 -12   87.59   13.20
   0 -10 -12   84.99   12.70
   0  10  12   78.69   14.20
   0  10 -12   81.79   10.80
   0 -10 -12   78.79    9.00
   0 -10  12   78.89   10.10
   1  10 -12   -2.40   11.10
  -1  10 -12   11.80   11.40
  -1  10  12    3.40   13.50
   1  10 -12    3.80   11.00
  -1  10 -12    6.00   10.80
  -1  10  12   -5.00   10.40
   1 -10 -12    0.90   10.80
  -1  10 -12    0.50    9.60
  -1 -10 -12    1.70   12.20
  -1 -10 -12    9.70    9.70
  -1 -10  12    3.50   10.60
  -2  10 -12  541.15   15.60
  -2  10  12  541.55   12.10
   2 -10 -12  532.85   14.70
  -2 -10 -12  502.35   12.50
  -2 -10  12  520.05   13.90
   2  10 -12  538.65   16.00
  -2 -10 -12  530.75   19.00
  -2  10 -12  536.55   11.10
  -2  10  12  561.54   18.30
  -3 -10 -12   10.40   17.40
  -3  10 -12   14.00   13.20
   3  10 -12   18.00   12.00
   3 -10 -12   16.70   11.60
  -3  10  12   16.00    9.40
  -3 -10 -12   11.10   12.00
  -3  10 -12   20.10    8.80
  -3 -10  12   24.40   11.60
  -3  10  12    7.50   17.70
  -3 -10 -12    9.90   19.50
   4  10 -12   55.39   13.20
  -4  10 -12   67.89   11.80
   4 -10 -12   52.29   12.70
  -4 -10 -12   54.79   10.20
  -4 -10  12   61.59   11.70
  -4  10  12   52.59   18.80
  -4  10 -12   57.29    9.50
  -4  10  12   55.79   10.30
  -5  10 -12   37.50   14.50
   5 -10 -12   44.10   13.30
  -5  10  12   36.10   15.00
  -5 -10 -12   37.90   12.80
  -5 -10  12   46.10   11.20
  -5  10 -12   32.30    9.20
  -5  10  12   38.50   10.20
   5  10 -12   35.30   13.60
  -6 -10  12   27.80   12.00
   6 -10 -12   35.40   11.60
  -6  10 -12   28.20   16.20
  -6 -10 -12   31.00   13.50
  -6  10  12   40.60   18.80
   6  10 -12   26.50   14.90
  -6  10  12   38.80   11.00
  -6  10 -12   35.80    9.90
  -7  10 -12   14.40   17.60
  -7 -10  12    5.20   10.00
   7 -10 -12   -6.40   13.80
   7  10 -12    7.90   17.30
  -7  10 -12    5.00   10.50
  -7 -10 -12   11.50   11.60
  -7  10  12    5.30    9.60
   1  11 -12    3.30   10.90
  -1  11 -12   -0.70   10.20
  -1  11 -12    5.30   11.30
   1  11 -12    5.60   11.00
  -1 -11 -12    5.40   14.10
  -1  11  12    7.40   15.30
  -1  11  12    8.10   11.60
  -1  11 -12    4.60   10.10
   1 -11 -12   -3.40   11.00
  -1 -11 -12    6.60   10.40
  -1 -11  12   -3.50   10.90
  -2  11  12  146.99   16.10
   2  11 -12  139.09   11.60
  -2  11 -12  147.89   13.80
   2 -11 -12  143.49   13.50
  -2  11  12  162.18   11.40
  -2 -11 -12  136.79   18.10
  -2  11 -12  157.08   10.10
  -2 -11 -12  139.99   11.90
   2  11 -12  137.39   14.60
  -2 -11  12  129.29   12.40
  -3  11  12    9.80   10.20
  -3 -11 -12   14.10   12.50
  -3 -11  12   11.80   12.20
  -3  11 -12   15.10   14.10
   3  11 -12   13.10   13.50
   3 -11 -12   -1.70   12.00
  -3  11  12   13.60   17.70
  -3  11 -12    2.70    9.00
   4  11 -12  413.76   15.90
  -4  11 -12  461.35   16.20
   4 -11 -12  440.86   14.20
  -4  11  12  434.06   16.40
  -4  11  12  440.36   10.20
  -4 -11 -12  452.25   14.50
  -4 -11  12  452.65   13.30
  -4  11 -12  399.66   10.70
  -5 -11  12    7.00   11.80
   5 -11 -12   -5.70   13.40
  -5  11 -12   12.10   15.30
  -5  11 -12   10.40    9.50
  -5  11  12    3.10   15.60
  -5 -11 -12    7.80   12.90
  -5  11  12    4.70   10.60
   5  11 -12    4.20   15.60
  -6 -11 -12  369.56   13.20
   6  11 -12  340.37   19.90
   6 -11 -12  411.76   13.70
  -6  11 -12  377.56   18.20
  -6  11  12  385.86   17.60
  -6  11 -12  326.07   10.00
  -6 -11  12  349.47   13.30
  -6  11  12  319.97   11.10
  -7 -11  12    2.90   12.70
   7 -11 -12    7.50   16.30
   7  11 -12   12.60   19.00
  -7 -11 -12   -2.90   13.90
  -7  11  12   25.20   16.50
  -7  11 -12  -18.80   18.90
  -7  11  12   -0.30   12.60
  -7  11 -12    5.60    9.20
   0 -12 -12  553.04   11.80
   0  12 -12  541.45   15.00
   0 -12 -12  555.44   15.60
   0  12  12  570.84   17.00
   0  12 -12  552.34   14.30
   0 -12  12  528.25   13.00
   1  12 -12   45.60   11.10
  -1  12  12   52.39   11.80
   1  12 -12   51.29   13.70
  -1  12 -12   50.59   12.40
  -1  12  12   57.49   13.40
  -1 -12 -12   47.50   15.70
   1 -12 -12   49.70   12.60
  -1  12 -12   49.30   10.70
  -1 -12 -12   48.50   10.50
  -1 -12  12   49.30   12.00
  -1  12 -12   52.29   10.90
  -2  12  12   62.69   15.90
  -2  12  12   70.89   11.60
   2  12 -12   63.29   12.80
  -2  12 -12   73.19   13.50
  -2  12 -12   70.79   11.80
   2 -12 -12   68.69   11.60
  -2  12 -12   70.99   10.40
   2  12 -12   64.69   14.70
  -2 -12 -12   63.79   12.10
  -2 -12  12   73.89   12.20
   3  12 -12    2.90   12.80
   3  12 -12    3.40   15.30
  -3  12 -12   10.80   14.20
   3 -12 -12    1.10   11.60
  -3  12  12    1.50    9.20
  -3  12 -12    3.70    9.50
  -3 -12 -12   11.10   12.70
  -3 -12  12   15.60   10.00
  -3  12  12   12.30   17.20
  -4  12 -12  261.77   10.80
  -4 -12  12  268.07   13.00
   4 -12 -12  257.07   11.80
  -4  12 -12  263.97   16.30
  -4  12  12  263.97   12.00
  -4 -12 -12  243.28   13.70
  -4  12  12  279.37   19.00
   4  12 -12  250.47   17.20
   5  12 -12   19.40   17.60
  -5  12  12   19.00   11.70
   5 -12 -12   21.70   13.70
  -5  12 -12   19.30   13.40
  -5  12  12   15.60   16.00
  -5 -12 -12   26.60   13.60
  -5 -12  12   27.20   11.90
  -5  12 -12   26.40    8.60
  -6 -12 -12   17.40   14.10
   6 -12 -12   19.20   12.20
   6  12 -12   21.60   20.10
  -6  12 -12   47.70   18.10
  -6  12  12   38.20   16.80
  -6 -12  12   32.50   12.20
  -6  12  12   11.20   12.40
  -6  12 -12   26.20   11.20
   7 -12 -12   23.00   17.10
   7  12 -12   11.60   27.10
  -7  12 -12   18.40   16.30
  -7  12  12   15.60   18.60
  -7 -12 -12   10.20   14.90
  -7 -12  12    2.50   13.50
  -7  12  12   18.30   14.00
  -7  12 -12   -1.50   12.20
  -1 -13 -12    1.90   11.00
   1  13 -12    8.90   13.90
   1  13 -12   12.10   13.30
  -1  13 -12   16.90   12.60
  -1 -13 -12   10.80   17.90
   1 -13 -12   14.90   12.90
  -1  13 -12    9.70   11.30
  -1  13 -12   11.40   11.80
  -1  13  12   10.90   16.00
  -1 -13  12   19.70   12.20
  -2  13  12  155.68   12.40
  -2 -13  12  144.69   13.20
  -2  13  12  159.88   16.10
   2  13 -12  135.09   13.60
  -2  13 -12  146.49   13.60
   2 -13 -12  153.78   14.40
   2  13 -12  152.28   16.50
  -2  13 -12  159.28   12.50
  -2  13 -12  158.58   11.10
  -2 -13 -12  135.09   10.20
   3  13 -12   12.60   15.00
   3  13 -12    8.40   16.30
   3 -13 -12    3.70   12.60
  -3  13 -12    8.40   14.30
  -3  13  12   16.70   11.80
  -3  13 -12    9.60   10.20
  -3 -13 -12    9.40   12.80
  -3 -13  12    9.60   12.70
  -3  13  12    9.00   17.30
   4  13 -12  357.26   20.40
  -4 -13  12  533.95   14.20
  -4 -13 -12  486.35   15.60
   4 -13 -12  522.35   15.10
  -4  13 -12  569.04   17.90
  -4  13 -12  485.55   12.70
  -4  13  12  547.35   21.00
   4  13 -12  465.35   22.20
  -4  13  12  509.55   13.80
   5  13 -12    6.90   21.80
  -5 -13  12   16.80   12.10
   5 -13 -12   14.80   13.80
  -5  13 -12    8.60   11.20
  -5  13 -12   -3.00   17.50
   5  13 -12    6.90   22.50
  -5 -13 -12   10.70   14.30
  -5  13  12   -5.60   12.20
  -6  13 -12  224.78   13.30
   6 -13 -12  259.57   16.90
  -6  13  12  232.48   14.60
  -6  13 -12  239.38   17.70
  -6 -13 -12  209.38   16.50
  -6 -13  12  230.08   12.30
   0  14  12    6.90   17.90
   0 -14 -12    3.30   14.20
   0  14 -12   -2.50   14.10
   0 -14 -12    5.20   10.90
   0  14 -12   13.90   13.60
   0 -14  12   11.10   12.30
   1  14 -12   20.90   15.10
  -1 -14  12    4.90   12.70
   1  14 -12   13.30   13.90
   1 -14 -12   11.20   13.50
  -1  14 -12   11.10   13.20
  -1  14 -12   15.40   12.50
  -1 -14 -12    7.30   11.40
  -1  14  12   17.70   15.80
  -2  14  12  209.78   13.20
  -2  14  12  198.78   16.30
   2  14 -12  172.98   14.90
   2 -14 -12  188.38   12.70
  -2  14 -12  191.18   16.60
  -2  14 -12  200.78   12.20
   2  14 -12  199.08   18.10
  -2 -14 -12  183.28   13.00
  -2 -14  12  203.38   14.40
  -2  14 -12  199.78   13.50
   3  14 -12   48.80   18.10
   3  14 -12   46.60   17.10
   3 -14 -12   68.09   14.60
  -3  14 -12   58.79   14.80
  -3  14  12   75.79   12.70
  -3 -14 -12   57.39   13.40
  -3 -14  12   76.79   13.20
  -3  14 -12   65.29   11.50
  -3  14  12   71.79   17.90
  -4  14  12   11.90   12.10
  -4  14 -12   10.30   11.20
   4 -14 -12    5.90   13.50
   4  14 -12    5.10   23.00
  -4  14 -12   -5.00   16.10
  -4 -14 -12    3.70   13.80
   4  14 -12    6.70   22.20
  -4 -14  12    9.70   12.50
   5 -14 -12    5.10   14.40
  -5  14 -12    0.20   18.10
  -5  14  12    6.60   13.10
  -5  14 -12   11.20   11.70
  -5 -14 -12    0.30   14.70
  -5 -14  12   -2.90   12.90
  -1  15  12   30.80   18.10
   1 -15 -12   27.80   15.10
  -1  15 -12   28.80   15.40
   1  15 -12   36.00   16.30
  -1  15 -12   21.70   14.00
   1  15 -12   32.50   16.30
  -1 -15 -12   20.20   12.30
  -1 -15  12   30.90   13.20
  -2  15 -12  175.98   14.10
  -2  15  12  185.38   11.70
   2 -15 -12  151.08   15.20
  -2  15  12  199.38   18.90
   2  15 -12  140.09   19.00
   2  15 -12  152.48   20.40
  -2  15 -12  169.48   15.20
  -2  15 -12  184.58   12.90
  -2 -15 -12  187.38   11.40
  -2 -15  12  181.58   11.40
  -3  15  12    2.60   17.50
   3 -15 -12    1.80   14.90
  -3  15 -12    7.10   13.70
   3  15 -12    4.70   22.30
  -3  15 -12   11.50   15.30
  -3  15 -12    4.70   11.90
  -3 -15 -12    5.10   13.90
  -3 -15  12   -4.00   12.80
  -3  15  12    6.00   13.00
   3  15 -12    5.30   22.60
   4 -15 -12  179.08   15.20
  -4  15  12  169.98   14.60
  -4 -15  12  189.98   14.10
  -4  15 -12  172.18   17.60
  -4  15 -12  196.68   11.30
  -4 -15 -12  196.98   15.40
  -4  15  12  253.77   21.00
   5 -15 -12   17.40   15.40
  -5  15 -12   17.70   19.10
  -5  15 -12    0.00   10.60
  -5 -15 -12   12.10   12.60
  -5 -15  12    6.60   11.00
   0  16 -12   60.59   16.50
   0  16 -12   55.09   16.00
   0 -16 -12   55.79   10.50
   1 -16 -12   64.09   17.70
   1  16 -12   56.19   17.60
  -1  16 -12   51.59   17.10
   1  16 -12   54.49   18.90
  -1  16  12   66.09   18.60
  -1 -16 -12   62.69   13.30
  -1 -16  12   61.29   14.30
  -1  16 -12   65.49   16.30
  -2  16 -12   89.69   13.20
   2 -16 -12   96.39   15.80
   2  16 -12   82.89   22.60
  -2  16 -12   91.39   15.50
   2  16 -12   64.29   22.60
  -2  16  12   87.09   21.70
  -2  16 -12   87.39   14.60
  -2 -16 -12   86.59   13.70
  -2 -16  12   87.09   13.90
  -3  16  12    8.20   14.40
  -3  16  12   13.50   20.60
   3 -16 -12   12.70   13.20
  -3  16 -12    5.20   15.90
  -3  16 -12   15.90   14.40
  -3  16 -12    1.30   12.80
  -3 -16 -12    3.10   14.60
  -3 -16  12   16.60   13.70
   4 -16 -12    3.10   14.80
  -4  16  12   12.50   14.70
  -4 -16  12    8.70   13.70
   1  17 -12   29.20   20.60
  -1  17  12   43.00   23.50
   1  17 -12   24.80   22.20
  -1  17 -12   46.40   17.40
  -1  17 -12   36.20   17.60
  -1 -17 -12   34.80   14.30
  -1 -17  12   54.29   14.90
   2 -17 -12   19.60   18.30
  -2  17 -12    6.30   17.30
  -2  17 -12   20.80   15.90
  -2  17  12   32.90   21.80
  -2 -17 -12   30.30   11.90
  -2 -17  12   35.00   15.10
  -1   1 -13    5.30    9.70
  -1   1  13   11.60   13.60
  -1   1 -13   23.20   23.30
  -1  -1 -13   10.90   10.60
   1  -1 -13    7.90   11.20
  -1  -1 -13    8.10   22.40
  -1  -1  13   14.20    9.90
   1   1 -13    7.60   12.40
  -2   1 -13   11.00    9.50
  -2  -1 -13    9.90   11.80
   2  -1 -13    6.10   13.40
   2   1 -13   15.00   10.70
  -2   1  13   13.30   14.00
  -2  -1  13   16.40   13.40
  -2   1  13   12.00   11.60
  -3   1 -13   39.00    8.80
   3  -1 -13   42.20   14.00
  -3   1  13   38.80   13.30
   3   1 -13   39.30   12.90
  -3  -1  13   46.30   12.50
  -3  -1 -13   42.40   12.10
   4   1 -13   70.19   12.40
  -4  -1 -13   76.59   10.00
  -4   1 -13   71.39   10.60
  -4  -1  13   68.39   11.70
   4  -1 -13   63.79   13.20
  -4   1  13   73.69   10.40
  -5  -1  13   39.60    9.80
  -5   1 -13   36.50   11.20
  -5  -1 -13   48.70   10.40
   5  -1 -13   45.80   11.20
  -5   1  13   43.90   10.50
   5   1 -13   46.30   12.90
  -6   1 -13  297.47   10.70
  -6  -1 -13  311.27   12.30
   6  -1 -13  264.87   15.10
   6   1 -13  279.27   12.40
  -6   1  13  282.47   13.80
  -6  -1  13  286.77   11.20
  -7   1 -13   16.00   12.50
  -7  -1 -13    7.00   11.90
   7  -1 -13   -1.80   13.90
   7   1 -13   14.50   13.20
  -7   1  13    5.40   10.10
  -7  -1  13   11.40   12.50
   8  -1 -13   31.60   12.50
   8   1 -13   50.19   14.50
  -8   1 -13   32.00   11.40
  -8  -1 -13   28.90   13.40
  -8   1  13   37.50   14.50
  -8  -1  13   34.70   13.50
  -9  -1  13   33.80   15.30
   9  -1 -13   14.70   16.70
   9   1 -13   33.90   15.80
  -9   1 -13   19.20   12.50
  -9  -1 -13   27.90   15.40
  -9   1  13   33.10   15.30
   0   2  13  309.77   13.50
   0   2 -13  317.77   11.10
   0  -2 -13  347.17   13.80
  -1  -2 -13  108.09   13.70
  -1   2 -13  114.29   11.40
   1  -2 -13   92.99   12.60
  -1  -2  13  109.79   13.10
  -1   2 -13  120.79   17.10
  -1  -2 -13  120.69   16.20
  -1  -2  13  115.49   18.70
  -1   2  13  103.99   14.30
   1   2 -13  111.29   12.90
  -2  -2  13  134.09   18.20
   2  -2 -13  132.09   12.30
  -2  -2  13  148.19   13.50
  -2   2  13  137.79   13.10
   2   2 -13  134.29   13.30
  -2   2  13  142.19   12.70
  -2   2 -13  137.09   12.00
  -2   2 -13  139.09   10.30
  -2  -2 -13  124.19   13.10
  -3   2 -13  299.97   10.20
   3  -2 -13  302.47   15.50
  -3   2  13  306.47   15.00
   3   2 -13  312.37   13.90
  -3  -2  13  298.27   13.50
  -3  -2 -13  274.77   13.60
   4   2 -13  118.19   10.40
  -4  -2 -13  123.39   10.20
  -4   2 -13  127.79   10.80
  -4  -2  13  112.09   11.50
  -4  -2 -13  133.39   13.70
  -4   2  13  122.19   11.20
   4  -2 -13  112.79   11.80
  -5  -2  13    8.20    9.40
  -5  -2 -13    2.40   10.20
  -5   2 -13    4.00   11.10
  -5   2  13   -0.80   10.70
   5  -2 -13    3.30   14.50
   5   2 -13    5.40   11.90
  -6  -2  13   57.49   11.80
  -6   2 -13   51.99   11.80
  -6  -2 -13   49.20   11.30
   6  -2 -13   47.60   11.80
   6   2 -13   45.40   10.80
  -6   2  13   38.60   13.00
  -7  -2  13   38.40   12.80
  -7   2 -13   34.50   12.90
  -7  -2 -13   34.40   11.90
   7  -2 -13   23.70   15.20
   7   2 -13   30.90   11.70
  -7   2  13   34.10   11.20
  -8  -2  13   28.40   13.30
   8  -2 -13   30.60   13.20
   8   2 -13   35.80   14.20
  -8   2 -13   34.20   13.80
  -8  -2 -13   40.80   13.50
  -9  -2  13   63.29   15.00
   9  -2 -13   37.80   14.60
   9   2 -13   64.29   15.90
  -9   2  13   62.99   13.40
  -9   2 -13   61.79   15.90
  -9  -2 -13   59.29   15.30
   1   3 -13    1.00   12.10
  -1  -3 -13   15.80   13.90
  -1  -3  13    6.50   12.20
   1  -3 -13   -1.20   12.10
  -1   3 -13    5.60   11.10
  -1   3 -13    8.30   13.80
  -1  -3 -13    5.00   14.00
  -1   3  13   14.50   13.90
  -1  -3  13    7.60   15.90
  -1   3  13    8.80   17.80
   2  -3 -13   30.60   11.50
  -2   3  13   33.80   16.30
  -2   3 -13   28.00    9.20
   2   3 -13   36.80   12.10
  -2  -3 -13   28.40   14.90
  -2  -3  13   33.40   16.70
  -2  -3 -13   35.30   13.30
  -2  -3  13   46.70   12.40
  -2   3  13   32.30   11.40
  -2   3 -13   33.40    9.70
  -3   3  13   13.80   14.30
  -3  -3  13   14.40   11.30
   3  -3 -13   10.50   13.60
  -3   3 -13   11.80    9.20
   3   3 -13   12.00   10.00
  -3  -3 -13    8.40   12.40
  -3   3  13   13.70    9.30
  -3   3 -13   10.30    8.50
   4   3 -13  300.27   12.70
  -4  -3 -13  312.67   11.20
  -4   3 -13  312.97   10.60
  -4  -3 -13  313.47   14.40
  -4  -3  13  292.67   12.00
  -4   3  13  300.07   12.60
   4  -3 -13  309.57   15.20
  -5   3 -13   14.80    9.50
  -5  -3 -13   11.30   10.00
  -5  -3  13    7.60   10.90
   5  -3 -13   18.70   12.00
  -5   3  13   10.50   13.40
  -5  -3 -13   14.80   13.90
   5   3 -13   18.00   11.90
  -6  -3  13   10.60   11.60
   6  -3 -13   10.50   15.60
  -6   3 -13    5.70   11.90
  -6  -3 -13    5.10   10.60
  -6   3  13    0.20   10.80
   6   3 -13    2.00   13.10
  -7  -3  13   35.60   11.70
  -7   3 -13   33.20   10.70
  -7  -3 -13   33.80   11.80
   7  -3 -13   32.40   12.80
   7   3 -13   31.80   13.30
  -7   3  13   45.60   11.50
  -8  -3  13  152.28   13.70
   8  -3 -13  133.09   14.20
   8   3 -13  170.18   14.80
  -8   3 -13  161.58   14.40
  -8  -3 -13  166.58   14.30
  -9  -3  13   19.10   14.90
   9  -3 -13   11.70   18.00
   9   3 -13    2.40   15.60
  -9   3 -13    4.60   16.70
  -9  -3 -13    9.50   15.50
   0   4  13   22.00   11.80
   0  -4 -13   21.50   11.50
   0   4 -13   25.20    9.10
   1   4 -13  737.93   14.70
   1  -4 -13  771.12   17.00
  -1  -4  13  773.02   18.20
  -1   4 -13  802.22   17.20
  -1   4  13  783.52   20.70
  -1   4  13  717.23   16.80
  -1  -4 -13  767.82   16.80
  -1   4 -13  713.13   13.90
  -1  -4 -13  786.82   17.30
   2  -4 -13  271.27   15.00
  -2   4  13  265.17   15.50
  -2  -4 -13  274.07   14.70
  -2   4 -13  277.57   12.50
  -2  -4 -13  265.17   15.00
  -2  -4  13  263.07   16.30
  -2  -4  13  298.47   13.10
   2   4 -13  271.27   13.00
  -2   4  13  290.07   12.20
  -2   4 -13  284.87   11.00
  -3   4 -13   21.90    9.20
   3   4 -13   28.80   11.80
  -3  -4  13   28.00   10.90
  -3  -4  13   21.40   13.20
  -3   4  13   17.00    9.40
  -3   4 -13   16.80    8.50
  -3   4  13   10.60   12.60
   3  -4 -13   17.20   11.10
  -3  -4 -13   12.70   14.50
   4   4 -13   24.70   11.50
  -4  -4 -13   20.50   10.00
  -4   4 -13   20.40   11.70
  -4  -4 -13   21.20   12.50
  -4   4  13   20.40   14.30
   4  -4 -13   20.20   14.60
  -4  -4  13   23.70   11.00
  -4   4  13   23.60    7.80
  -4   4 -13   21.40    7.20
   5  -4 -13  208.78   12.50
  -5  -4 -13  231.58   11.40
  -5   4 -13  225.78   12.40
  -5  -4  13  223.18   12.60
  -5   4  13  239.58   14.70
  -5  -4 -13  240.28   15.10
   5   4 -13  219.08   13.00
  -6   4 -13   47.30   12.10
  -6  -4 -13   42.00   12.90
  -6  -4  13   34.10   11.30
   6  -4 -13   50.69   15.20
  -6   4  13   44.90   11.40
   6   4 -13   34.70   12.70
  -6  -4 -13   48.30   15.80
  -7  -4 -13  117.79   12.20
  -7  -4  13  117.39   12.60
  -7   4 -13  142.69   13.40
   7  -4 -13  130.09   16.90
   7   4 -13  120.79   13.50
  -7   4  13  140.99   15.20
  -7  -4 -13  145.09   18.20
  -8  -4 -13   28.80   16.60
  -8  -4  13   20.00   13.00
   8  -4 -13   19.00   14.50
  -8  -4 -13   13.50   15.30
  -8   4 -13   31.90   12.00
   8   4 -13   23.10   13.90
   9  -4 -13   -3.20   15.60
  -9  -4  13    3.00   15.10
   9   4 -13   -3.10   15.50
  -9  -4 -13    4.30   20.00
  -9   4 -13   -6.40   16.50
  -9  -4 -13   13.60   17.40
  -1   5  13   23.60   11.80
   1   5 -13   17.20    9.40
   1  -5 -13   27.00   13.40
  -1   5  13   20.00   13.70
  -1  -5 -13   16.30   13.70
  -1  -5 -13   19.20   10.70
  -1  -5  13   14.80   11.60
  -1   5 -13   13.80   11.00
  -1   5 -13   19.20   11.20
  -2   5 -13  114.89   11.90
   2  -5 -13  115.49   13.90
  -2  -5 -13  119.09   15.90
  -2   5  13  128.49   18.50
  -2  -5 -13  112.89   11.50
  -2   5  13  121.99   11.50
  -2  -5  13  103.99   12.90
  -2  -5  13  124.69   10.00
   2   5 -13  108.29   11.70
  -2   5 -13  122.89   11.30
  -2   5 -13  113.19   10.00
  -3  -5  13  318.07   12.30
  -3   5 -13  327.97   10.40
   3   5 -13  295.07   13.10
  -3  -5 -13  309.27   15.80
  -3  -5  13  327.97   12.90
  -3  -5 -13  312.17   13.50
  -3   5  13  306.17    9.70
  -3   5 -13  305.57    8.80
   3  -5 -13  298.87   14.30
  -3   5  13  307.17   17.80
  -4  -5 -13  240.58   14.70
  -4  -5 -13  218.08   11.30
   4   5 -13  213.68   12.40
  -4   5 -13  237.98   10.80
  -4  -5  13  235.68   11.80
   4  -5 -13  206.58   12.50
  -4   5  13  225.88   16.50
  -4   5  13  223.68   10.00
  -4   5 -13  214.88    9.20
  -5  -5 -13    6.30   15.20
  -5   5 -13    1.10   12.30
  -5  -5 -13    2.50   11.40
   5  -5 -13    3.30   14.60
  -5   5  13   -3.40   15.40
  -5  -5  13    4.00    8.80
   5   5 -13    7.30   11.60
  -5   5  13    5.30    9.40
  -5   5 -13    1.70    7.30
  -6  -5 -13  373.06   18.10
  -6   5 -13  381.06   13.90
  -6  -5 -13  375.26   12.80
   6  -5 -13  357.06   16.50
  -6   5  13  365.76   13.50
  -6  -5  13  345.77   12.50
   6   5 -13  374.76   13.90
  -6   5  13  324.37   10.80
  -7   5  13   93.29   10.60
  -7  -5  13  104.09   12.20
  -7  -5 -13  105.89   14.50
  -7   5 -13  117.19   11.60
   7  -5 -13   94.29   14.40
  -7  -5 -13  102.49   14.30
   7   5 -13  105.29   13.30
  -7   5  13  113.79   13.20
  -8   5  13   86.49   12.00
  -8  -5 -13  114.49   19.00
   8  -5 -13  112.59   18.60
   8   5 -13  117.29   14.40
  -8  -5  13  114.89   15.80
  -8   5  13  126.89   16.70
  -8  -5 -13  116.09   16.10
  -8   5 -13  124.89   16.00
  -9   5 -13    6.10    9.50
  -9   5  13   -7.80   14.30
  -9  -5 -13    5.40   19.70
   9  -5 -13   -5.90   16.10
   9   5 -13    7.70   15.50
  -9  -5  13    1.60   15.20
  -9   5 -13  -10.20   17.90
  -9  -5 -13   -2.50   15.40
  -9   5  13    3.00   13.20
   0  -6 -13  295.57   14.20
   0   6  13  296.87   13.40
   0  -6 -13  302.47   10.10
   0   6 -13  293.07   12.10
   0  -6  13  302.57   11.80
   1  -6 -13  298.17   13.50
  -1   6 -13  302.27   12.00
   1   6 -13  292.87   12.00
  -1   6  13  323.87   15.00
  -1   6  13  258.27   15.20
  -1  -6 -13  308.37   14.90
  -1   6 -13  311.87   12.50
  -1  -6 -13  299.37   12.20
  -1  -6  13  289.27   12.10
  -2   6 -13   32.40   11.30
  -2   6  13   43.40   17.90
   2   6 -13   33.30   11.50
  -2   6 -13   31.90    9.60
  -2  -6 -13   30.70   12.60
  -2   6  13   33.00   10.70
  -2  -6  13   30.80   13.50
  -2   6 -13   31.00    8.70
  -2  -6 -13   30.20   13.20
   2  -6 -13   20.30   10.40
  -3   6 -13  598.44   14.10
  -3  -6 -13  627.84   18.40
  -3  -6 -13  579.24   14.50
  -3  -6  13  595.84   13.60
   3   6 -13  579.04   14.30
  -3   6  13  601.64   11.30
  -3  -6  13  603.64   14.10
   3  -6 -13  583.04   12.70
  -3   6 -13  578.24   10.90
  -3   6  13  593.74   19.40
  -4  -6 -13  115.59   12.90
   4   6 -13  112.99   12.10
  -4   6  13  106.69    8.80
  -4  -6 -13  116.79   10.30
  -4   6 -13  125.89   10.20
   4  -6 -13  118.09   11.70
  -4   6  13  116.19   13.80
  -4  -6  13  108.69   11.30
  -4   6 -13  102.39    8.00
  -4  -6  13  114.59   10.90
  -4  -6 -13  124.79   15.20
  -5  -6 -13   20.40   15.10
  -5   6 -13   10.40    9.90
  -5  -6  13   19.50   10.80
  -5  -6 -13   14.00   11.70
  -5   6  13   29.10   15.70
   5  -6 -13    9.70   11.60
  -5   6  13   17.80    9.90
   5   6 -13   14.40   11.60
  -5   6 -13   17.80    7.80
  -6  -6  13   -1.00   11.00
  -6   6 -13    4.40   13.10
  -6  -6 -13   -5.10   15.90
  -6  -6 -13    2.60   12.70
   6  -6 -13  -10.80   16.00
  -6   6  13    8.30   15.40
   6   6 -13    3.40   12.10
  -6   6  13    0.90    9.10
  -6   6 -13    0.50    8.80
  -7   6 -13   72.09   11.80
   7  -6 -13   65.19   13.90
   7   6 -13   80.49   15.30
  -7  -6 -13   82.79   14.40
  -7   6  13   86.59   16.50
  -7  -6 -13   72.69   16.70
  -7  -6  13   73.49   12.40
  -7   6  13   59.29   10.50
  -7   6 -13   56.39    9.40
   8  -6 -13   21.00   15.50
   8   6 -13   24.20   14.00
  -8   6  13   24.40   14.00
  -8  -6 -13   22.30   15.90
  -8  -6  13   18.00   13.60
  -8   6 -13   19.90   13.60
  -8  -6 -13   18.90   17.50
  -8   6  13    7.40   11.70
  -8   6 -13    8.70    8.30
   1  -7 -13   31.30   11.50
  -1   7 -13   51.39   10.90
  -1   7  13   51.39   10.90
   1   7 -13   50.99   10.90
  -1  -7 -13   47.70   12.50
  -1   7  13   30.30   14.00
  -1   7 -13   48.00    9.50
  -1  -7 -13   39.60    9.30
  -1  -7  13   43.40   10.10
  -2   7  13  268.47   16.00
  -2   7 -13  251.87   12.50
   2  -7 -13  242.88   12.80
  -2  -7 -13  265.37   16.10
  -2  -7 -13  251.87   12.00
  -2   7 -13  263.17    9.80
  -2  -7  13  250.57   12.60
   2   7 -13  258.47   12.70
  -2   7  13  271.87   10.50
  -3  -7 -13   10.50   11.90
  -3   7 -13   21.90   12.50
   3   7 -13   10.40   11.40
  -3  -7 -13   14.30   11.50
  -3  -7  13   11.00   11.40
  -3   7  13   15.20   10.00
   3  -7 -13    5.20   12.40
  -3   7 -13    8.60    8.00
  -3  -7 -13   12.10   16.00
  -3   7  13   10.90   18.40
  -4  -7 -13  171.78   15.00
   4   7 -13  156.48   12.50
  -4  -7 -13  160.58   13.60
  -4  -7  13  163.28   13.20
  -4   7 -13  162.68   12.90
  -4  -7  13  171.58   13.50
  -4   7 -13  151.78    8.20
   4  -7 -13  166.38   13.20
  -4   7  13  133.99   16.90
  -4  -7 -13  166.08   12.90
  -4   7  13  158.38   10.20
  -5  -7  13  177.68   11.50
  -5  -7  13  174.68   11.80
  -5   7 -13  176.78   11.30
  -5  -7 -13  181.28   12.90
  -5  -7 -13  189.58   15.60
  -5  -7 -13  188.98   13.60
   5  -7 -13  167.48   11.80
  -5   7  13  167.78    9.80
  -5   7 -13  178.78    8.90
  -5   7  13  199.18   16.70
   5   7 -13  187.08   14.40
  -6  -7  13  480.15   15.50
  -6   7  13  499.75   17.70
  -6   7 -13  528.35   13.60
   6  -7 -13  465.65   13.90
  -6  -7 -13  507.85   16.90
   6   7 -13  515.75   14.70
  -6  -7 -13  490.95   19.60
  -6   7  13  416.66   11.80
  -6   7 -13  432.26   10.30
  -7  -7 -13   54.09   18.40
  -7   7  13   61.99   14.20
  -7  -7  13   52.29   14.30
   7  -7 -13   48.40   14.40
  -7   7 -13   67.79   12.60
   7   7 -13   49.20   15.10
  -7  -7 -13   56.39   14.70
  -7   7  13   35.80   10.90
  -7   7 -13   34.20    9.50
  -8  -7 -13   76.39   20.60
  -8  -7  13   92.99   15.90
   8  -7 -13  110.19   16.10
   8   7 -13   85.19   16.70
  -8   7 -13   77.89    8.90
  -8   7 -13  105.09   14.50
  -8   7  13   99.69   15.20
  -8  -7 -13   92.39   17.50
  -8   7  13   66.99   12.70
   0  -8 -13  419.36   13.60
   0   8 -13  435.06   12.30
   0   8  13  439.46   14.10
   0  -8 -13  432.46   10.40
   0  -8  13  429.26   11.70
  -1   8  13  678.63   15.40
  -1   8 -13  635.54   14.50
  -1   8 -13  642.24   13.10
  -1  -8 -13  617.64   15.50
   1   8 -13  640.84   14.10
  -1   8  13  638.94   19.10
  -1   8 -13  677.03   12.70
  -1  -8 -13  612.04   12.10
  -1  -8  13  598.04   14.30
   1  -8 -13  612.84   14.30
  -2   8  13   93.29   17.90
  -2   8 -13   93.79   10.30
  -2  -8 -13   87.49   15.20
  -2   8  13   92.29    9.70
  -2   8 -13   87.09   10.20
  -2   8 -13  103.89    9.20
  -2  -8 -13  101.39   10.80
  -2  -8  13   87.99   11.60
   2  -8 -13   81.99   12.10
   2   8 -13  103.69   11.30
  -3   8  13   45.90    9.20
  -3  -8 -13   43.90   12.60
  -3   8 -13   55.29   10.50
  -3   8 -13   46.90    8.70
   3   8 -13   56.69   11.30
  -3  -8  13   49.70   11.60
  -3  -8 -13   48.70   16.30
  -3  -8 -13   40.20   12.20
   3  -8 -13   38.80   12.40
  -3   8  13   64.79   19.80
   4   8 -13   79.59   13.40
  -4  -8 -13   70.99   13.20
  -4   8 -13   91.29   13.50
  -4  -8  13   80.19   11.20
   4  -8 -13   94.19   12.90
  -4  -8 -13   73.59   12.20
  -4   8  13   61.59   16.90
  -4   8  13   79.59    9.40
  -4  -8 -13   86.89   16.50
  -4   8 -13   69.89    8.20
  -5  -8 -13  257.27   18.10
  -5   8 -13  275.07   14.60
  -5  -8 -13  272.47   14.00
  -5  -8 -13  257.87   15.20
   5  -8 -13  266.87   14.60
  -5  -8  13  255.87   12.40
  -5   8  13  243.08   17.90
  -5   8  13  244.38   10.80
  -5   8 -13  227.48    9.50
   5   8 -13  264.37   13.00
  -5  -8  13  263.87   12.60
  -6  -8 -13   15.50   17.40
  -6   8 -13   15.50   15.00
   6  -8 -13    8.30   14.90
  -6  -8 -13    3.60   13.50
  -6  -8  13   15.60   11.60
  -6   8  13   19.90   14.20
  -6  -8 -13    6.70   16.50
   6   8 -13   12.70   11.80
  -6  -8  13   13.60   13.20
  -6   8  13   20.60   10.10
  -6   8 -13    3.30    8.80
  -7  -8  13   72.29   14.90
  -7  -8 -13   77.59   18.80
   7  -8 -13   88.99   14.40
  -7   8 -13   95.49   16.50
  -7  -8  13   58.09   12.90
   7   8 -13   96.39   15.50
  -7   8  13   99.89   14.90
  -7  -8 -13   86.39   17.50
  -7   8  13   57.99   11.40
  -7   8 -13   46.40   10.10
  -8  -8 -13    3.10   22.50
  -8  -8  13    7.70   16.10
   8  -8 -13   -6.20   15.60
   8   8 -13    5.50   16.50
  -8  -8 -13   -2.20   24.00
  -8  -8  13   -3.60   13.60
  -8   8 -13    2.60   14.80
  -8   8  13   10.80   12.50
  -8   8 -13   -1.10   11.30
  -1   9 -13  148.99   12.50
  -1   9 -13  132.09   11.20
   1   9 -13  145.89   11.20
  -1   9  13  142.39   14.10
  -1  -9 -13  141.59   10.00
  -1  -9  13  128.89   10.90
  -1   9 -13  140.79   10.30
  -1   9  13  143.29   11.40
  -1  -9 -13  144.89   13.90
   1  -9 -13  137.09   11.50
  -2   9  13   26.80   16.80
  -2  -9 -13   24.00   13.10
  -2   9  13   25.30   11.40
  -2   9 -13   36.40   12.80
  -2   9 -13   22.40    8.90
  -2   9 -13   31.50   11.20
   2  -9 -13   23.00   11.50
  -2  -9 -13   18.40   10.70
  -2  -9  13   22.50   13.50
   2   9 -13   16.20   11.70
  -3  -9 -13    3.50   12.50
  -3   9 -13    6.40   12.50
  -3  -9 -13   10.10   16.60
   3   9 -13    8.00   11.50
  -3  -9  13   -1.80   11.70
   3  -9 -13    5.30   12.30
  -3   9  13   -1.20    9.50
  -3   9 -13    5.30    8.40
  -3   9  13   15.00   19.40
  -3  -9 -13    8.70   11.40
   4   9 -13  534.85   16.40
  -4   9 -13  568.44   13.60
  -4  -9 -13  540.15   19.00
  -4  -9 -13  546.65   22.10
   4  -9 -13  511.05   14.60
  -4  -9 -13  537.25   14.80
  -4  -9  13  546.85   13.20
  -4   9  13  516.45   20.60
  -4   9  13  535.15   11.40
  -4   9 -13  533.65   10.70
  -5   9 -13  226.08   14.90
  -5  -9 -13  221.58   14.30
  -5  -9  13  201.58   12.20
  -5  -9 -13  204.48   21.70
  -5  -9 -13  208.88   19.60
  -5   9  13  184.38   18.60
  -5   9  13  184.98   11.00
  -5   9 -13  188.48    9.60
   5   9 -13  200.98   14.60
   5  -9 -13  194.08   14.00
  -6  -9 -13   31.80   13.80
   6  -9 -13   48.80   12.30
  -6   9 -13   40.30   15.40
  -6  -9  13   46.60   12.20
  -6   9  13   52.79   18.10
   6   9 -13   49.70   12.50
  -6  -9 -13   40.50   25.90
  -6   9  13   36.70   10.60
  -6   9 -13   44.80    9.60
  -6  -9 -13   45.70   22.70
  -7  -9  13   29.40   15.10
  -7  -9 -13   17.30   14.00
   7   9 -13   36.50   15.80
  -7  -9 -13   31.50   31.90
   7  -9 -13   29.20   17.00
  -7   9 -13   43.90   16.90
  -7  -9  13   20.30   12.60
  -7   9  13   21.50   11.60
  -7   9 -13   30.00   10.20
  -8  -9  13  127.99   19.60
  -8  -9  13   75.89   14.50
   8  -9 -13  202.58   16.40
   8   9 -13  170.48   18.40
  -8  -9 -13  108.99   15.70
  -8   9 -13  190.28   16.90
  -8   9  13  152.68   16.90
  -8   9 -13  106.29   12.10
  -8   9  13   84.59   14.20
   0  10 -13  116.59   12.00
   0  10  13  132.29   12.90
   0 -10 -13  135.69   13.20
   0 -10 -13  124.49    9.30
   0 -10  13  129.29   11.00
   0  10 -13  132.59   11.90
  -1  10 -13  351.16   13.40
   1  10 -13  353.56   12.80
  -1 -10 -13  348.27   16.30
  -1  10  13  352.96   15.00
  -1  10  13  376.76   12.40
  -1  10 -13  361.36   11.80
   1 -10 -13  359.46   15.00
  -1 -10 -13  345.77   11.50
  -1 -10  13  316.17   12.60
  -1  10 -13  368.66   12.20
  -2  10  13  171.88   16.30
  -2  10 -13  187.58   11.30
  -2 -10  13  161.28   12.40
  -2  10 -13  184.28    9.60
   2 -10 -13  174.68   12.10
  -2  10  13  189.08   11.10
  -2  10 -13  172.48    9.90
  -2 -10 -13  154.98   11.30
   2  10 -13  179.38   12.50
  -2 -10 -13  165.48   15.90
  -3 -10 -13  217.48   17.80
  -3  10 -13  240.68   14.40
   3  10 -13  228.88   12.90
   3 -10 -13  233.18   12.80
  -3  10  13  240.98   10.90
  -3  10 -13  236.08   10.10
  -3 -10 -13  218.88   12.90
  -3 -10  13  234.18   12.70
  -3  10  13  242.18   19.20
  -3 -10 -13  218.08   20.10
  -4 -10 -13    5.40   12.90
   4  10 -13    6.40   13.80
   4 -10 -13    2.10   12.70
  -4 -10  13   -1.60   11.50
  -4  10  13   -5.00   15.50
  -4  10 -13   -4.00    9.60
  -4  10 -13   11.80   13.80
  -4  10  13    7.80   10.10
  -5 -10  13   10.60   11.60
  -5  10 -13   12.90   12.20
   5 -10 -13   13.80   13.70
  -5  10 -13   -2.10    9.30
  -5  10  13   13.90   15.40
  -5  10  13    6.00   10.60
   5  10 -13   10.10   13.70
  -5 -10 -13    8.50   12.80
  -6 -10  13    8.40   11.90
   6 -10 -13    0.10   15.20
  -6  10 -13   20.60   13.20
  -6 -10 -13    8.50   13.70
  -6  10  13   23.50   15.60
   6  10 -13    7.00   14.80
  -6  10  13    8.20   11.30
  -6  10 -13   10.50   10.10
   7 -10 -13    5.30   14.00
   7  10 -13    1.50   17.20
  -7  10 -13   12.60   18.00
  -7 -10 -13    7.90   14.00
  -7 -10  13   -0.80   12.70
  -7  10  13   20.20   12.20
  -7  10 -13   -2.50   10.70
   1  11 -13   59.89   11.40
  -1  11 -13   53.79   12.50
   1 -11 -13   58.69   13.30
   1  11 -13   51.19   12.00
  -1  11  13   63.69   15.80
  -1  11  13   52.89   12.10
  -1  11 -13   62.79    8.80
  -1 -11 -13   55.09   14.30
  -1  11 -13   63.19   11.70
  -1 -11 -13   53.99   10.10
  -1 -11  13   44.70   11.40
  -2  11  13  151.18   15.80
  -2  11  13  150.58   11.40
  -2  11 -13  140.29   13.60
   2 -11 -13  141.19   13.60
  -2  11 -13  146.19   10.50
  -2 -11  13  146.59   12.70
  -2  11 -13  135.09   11.80
  -2 -11 -13  134.79   17.40
   2  11 -13  147.89   13.10
  -2 -11 -13  138.19   11.70
  -3  11 -13  232.08   14.90
   3  11 -13  214.28   14.90
   3 -11 -13  234.98   13.00
  -3  11  13  220.08   11.30
  -3  11 -13  202.08   10.50
  -3 -11 -13  215.68   13.40
  -3 -11  13  233.28   12.90
  -3  11  13  236.58   18.50
   4  11 -13    4.40   13.70
  -4 -11  13    4.30   12.50
  -4  11 -13    6.20   12.00
   4 -11 -13    1.80   12.80
  -4 -11 -13    4.40   13.10
  -4  11  13    0.00   11.00
  -4  11 -13   -4.30    9.70
  -4  11  13   20.30   18.60
  -5 -11 -13   -5.50   12.50
  -5  11  13   11.60   18.50
   5 -11 -13   -1.40   11.80
  -5  11 -13    8.90   12.90
  -5 -11  13   -6.30   12.30
  -5  11  13    4.40   11.20
  -5  11 -13    7.80   10.40
   5  11 -13    2.30   14.10
  -6 -11 -13  221.88   15.40
   6 -11 -13  246.68   16.00
  -6  11 -13  299.87   15.10
   6  11 -13  240.08   16.80
  -6  11  13  239.68   20.70
  -6  11 -13  222.78   11.60
  -6  11  13  182.58   13.20
  -6 -11  13  195.48   13.30
   7 -11 -13   53.39   17.60
   7  11 -13   64.89   18.80
  -7 -11 -13   53.19   12.90
  -7  11  13   60.59   13.60
  -7  11 -13   50.79   10.20
  -7 -11  13   54.09   11.20
  -7  11 -13   59.49   16.30
   0  12 -13    3.80   11.50
   0 -12 -13    0.60   12.30
   0  12  13    6.80   13.40
   0  12 -13    4.90   13.20
   0 -12 -13    5.90    9.90
   0 -12  13    5.40   11.40
   1  12 -13  100.29   12.20
   1  12 -13   94.69   14.50
  -1  12 -13   94.59   12.40
   1 -12 -13  108.59   11.60
  -1  12 -13  111.99   11.30
  -1 -12 -13  108.09   15.90
  -1  12  13  106.69   14.30
  -1  12 -13   97.89   12.00
  -1 -12 -13  107.99   10.80
  -1 -12  13   93.29   12.20
   2  12 -13   60.89   13.40
  -2 -12 -13   66.29   23.40
  -2  12  13   76.29   15.00
  -2  12 -13   80.79   11.60
  -2  12 -13   70.49   13.20
  -2 -12 -13   66.29   25.30
   2 -12 -13   71.69   11.80
  -2  12 -13   78.89   10.20
  -2  12  13   74.99   11.50
  -2 -12  13   82.99   13.10
   2  12 -13   82.69   14.70
  -2 -12 -13   64.79    9.30
   3  12 -13   62.69   13.30
   3  12 -13   68.29   14.60
  -3  12 -13   90.19   14.50
   3 -12 -13   88.09   12.60
  -3  12  13   79.89   11.90
  -3 -12 -13   72.59   12.90
  -3 -12  13   68.09   13.10
  -3  12 -13   72.19   10.40
  -3  12  13   83.09   18.10
  -4  12 -13    9.80   10.00
  -4  12 -13    8.90   12.30
   4 -12 -13   10.40   12.90
  -4 -12 -13   12.40   13.10
  -4 -12  13   12.30   11.90
  -4  12  13   11.50   15.70
  -4  12  13   18.20   11.20
   4  12 -13    6.60   14.10
   5  12 -13    7.30   16.00
  -5 -12  13   22.50   11.90
   5 -12 -13   15.60   14.10
  -5  12 -13    4.70   16.40
  -5 -12 -13   14.50   13.70
  -5  12  13    0.30   11.80
  -5  12 -13    2.30   10.60
  -5  12  13   13.60   20.00
   6 -12 -13   15.40   15.10
  -6  12 -13    3.10   18.00
   6  12 -13   19.20   20.60
  -6 -12  13   -1.60   12.80
  -6 -12 -13   13.90   14.30
  -6  12  13   25.00   20.60
  -6  12  13   16.90   10.60
  -6  12 -13    8.70   11.10
   1  13 -13   59.29   14.70
   1  13 -13   53.19   12.10
  -1  13 -13   59.19   12.60
  -1 -13 -13   40.90   17.30
   1 -13 -13   51.69   13.30
  -1  13 -13   46.30   12.00
  -1  13  13   41.60   16.20
  -1 -13 -13   54.29   11.10
  -1 -13  13   39.50   12.90
   2  13 -13    4.00   13.60
  -2  13  13    0.10   15.20
  -2  13 -13   -2.10   13.70
   2 -13 -13   -0.10   11.90
  -2 -13 -13    6.00   11.70
  -2  13  13    4.50   12.40
  -2  13 -13   -1.80   10.80
  -2  13 -13    9.10   12.30
   2  13 -13    5.40   14.80
  -2 -13  13   -4.40   12.70
  -3  13  13   -0.40   17.40
   3  13 -13    1.10   15.00
   3  13 -13   -4.70   16.20
  -3  13  13   -0.40   12.10
  -3  13 -13    2.20   13.70
   3 -13 -13    4.10   12.70
  -3  13 -13    6.90   10.90
  -3 -13 -13    0.10   12.60
  -3 -13  13    3.20   12.50
   4  13 -13   76.49   17.70
   4 -13 -13  119.79   13.80
  -4  13 -13  109.59   16.00
  -4  13  13  105.39   12.50
  -4  13 -13   88.09   11.00
  -4 -13 -13   92.29   14.00
  -4 -13  13  110.29   11.00
  -4  13  13  114.69   19.90
   4  13 -13   97.19   17.10
   5  13 -13   15.30   19.00
   5 -13 -13   30.00   11.90
  -5  13 -13   25.00   11.40
  -5  13 -13   41.90   17.70
   5  13 -13   12.90   20.10
  -5  13  13   29.40   12.90
  -5 -13 -13   24.30   14.10
  -5 -13  13   21.40   13.00
   6  13 -13    1.20   27.20
  -6  13  13   10.70   13.70
   6 -13 -13   -7.20   12.90
   6  13 -13    4.00   27.70
  -6  13 -13   -9.80   19.30
  -6 -13 -13    2.80   15.40
  -6 -13  13    6.50   13.20
  -6  13 -13    3.70   12.30
   0  14  13   75.69   17.90
   0  14 -13   66.69   14.90
   0 -14 -13   63.29   15.20
   0  14 -13   77.89   15.10
   0 -14 -13   78.79   11.50
   1  14 -13   25.80   15.60
  -1  14 -13   17.80   12.30
   1  14 -13   28.40   14.10
  -1  14 -13   15.70   13.10
   1 -14 -13   20.70   13.80
  -1 -14 -13   16.80   11.40
  -1 -14  13   15.80   13.10
  -1  14  13   24.30   16.20
  -2  14  13   18.10   13.10
   2  14 -13    3.20   15.60
   2 -14 -13    9.50   12.20
  -2  14  13    8.30   15.30
  -2  14 -13   19.40   13.80
  -2  14 -13    9.80   14.70
  -2  14 -13   13.10    9.80
   2  14 -13    9.80   15.60
  -2 -14  13   11.80   10.70
  -2 -14 -13   10.40   12.20
  -3  14  13   14.50   17.70
   3  14 -13   10.30   16.90
   3  14 -13    6.20   15.80
   3 -14 -13    2.20   13.30
  -3  14 -13   13.30   12.20
  -3 -14  13    8.80   12.90
  -3  14 -13   12.90   13.00
  -3  14 -13   14.20    9.30
  -3 -14 -13   12.30   10.70
  -3  14  13    5.40   12.80
  -4 -14 -13   10.40   11.50
   4  14 -13   15.80   19.30
   4 -14 -13   17.10   13.90
  -4  14  13   19.30   13.30
  -4  14 -13   13.10   15.70
  -4  14 -13   19.90    9.40
  -4 -14  13   22.10   13.00
   4  14 -13   20.30   22.00
   5 -14 -13   12.30   14.90
  -5  14  13   18.50   11.20
  -5  14 -13   11.10   14.90
  -5  14 -13    9.90    9.80
  -5 -14 -13    8.60   12.30
  -5 -14  13    9.30   11.00
  -1  15 -13    6.10   13.10
   1 -15 -13    3.40   14.10
   1  15 -13    0.20   14.70
  -1  15  13    4.40   18.60
  -1  15 -13   -1.60   13.70
   1  15 -13    5.90   18.00
  -1 -15 -13    6.30   12.20
  -1 -15  13   12.10   13.50
  -2  15  13   20.00   18.30
   2 -15 -13   20.40   15.00
   2  15 -13   10.90   16.50
  -2  15 -13    5.40   14.80
   2  15 -13   18.90   17.80
  -2  15 -13   26.70   12.50
  -2 -15 -13   17.70   13.30
  -2 -15  13   16.50   13.60
  -2  15 -13   23.40   13.50
  -3 -15  13   17.70   13.50
   3  15 -13    4.40   20.60
  -3  15  13   -1.50   17.50
   3 -15 -13   11.90   13.40
  -3  15 -13   -3.50   14.00
   3  15 -13    6.60   19.60
  -3  15 -13    6.00   15.60
  -3  15 -13    8.40   12.30
  -3  15  13   12.40   13.70
  -3 -15 -13   14.90   14.10
  -4  15  13   -9.00   23.20
   4 -15 -13   13.90   14.40
  -4  15 -13   16.30   17.10
  -4  15  13  -10.40   14.40
  -4 -15 -13   10.40   14.70
  -4  15 -13    1.80   10.20
  -4 -15  13   -2.60   11.10
   0  16 -13   10.60   16.90
   0  16 -13   10.50   16.10
   1 -16 -13   19.20   16.30
   1  16 -13   18.50   15.90
  -1 -16  13   35.10   14.30
  -1  16 -13   16.00   14.50
   1  16 -13   19.70   19.70
  -1  16 -13   18.40   14.40
  -1 -16 -13   21.10   13.30
  -1  16  13   23.70   19.00
   2 -16 -13    1.10   15.40
   2  16 -13    2.50   20.40
   2  16 -13    9.00   21.30
  -2  16 -13   -1.20   17.60
  -2  16 -13    7.20   14.20
  -2  16  13    5.40   18.90
  -2 -16 -13   -2.50   14.10
  -2 -16  13    7.00   14.40
   3 -16 -13   -2.80   13.90
  -3  16  13   -6.00   20.90
  -3  16 -13   10.50   16.20
  -3  16 -13    2.20   13.60
  -3 -16  13    8.30   13.70
  -3  16 -13   -2.80   14.80
  -3  16  13    9.20   14.80
  -3 -16 -13    4.70   14.60
   1 -17 -13   17.50   21.00
   1  17 -13   15.30   21.00
  -1  17  13   12.30   23.70
  -1  17 -13   24.80   17.90
   1  17 -13   12.10   19.60
  -1  17 -13   14.80   17.90
  -1 -17 -13   17.40   14.60
  -1 -17  13   11.00   15.50
   0   0 -14 1302.47   16.20
   0   0  14 1254.27   16.80
  -1   0  14   81.69   13.50
  -1   0 -14   74.49   10.50
   1   0 -14   85.09   11.00
   2   0 -14  536.75   15.50
  -2   0 -14  514.05   14.30
  -2   0  14  565.64   16.00
   3   0 -14  137.79   13.40
  -3   0  14  136.59   10.80
  -3   0 -14  125.39   11.20
   4   0 -14  636.24   14.70
  -4   0 -14  673.73   11.10
  -4   0  14  648.34   14.20
  -5   0  14  134.49   10.40
  -5   0 -14  151.98   11.30
   5   0 -14  148.49   10.90
  -6   0 -14  161.08   11.90
   6   0 -14  131.69   13.90
  -6   0  14  133.09   10.50
  -7   0 -14  182.08   13.10
   7   0 -14  161.48   12.10
  -7   0  14  166.98   13.30
   8   0 -14   19.60   12.40
  -8   0 -14   23.30   13.40
  -8   0  14   17.80   13.70
  -9   0  14   44.30   15.60
   9   0 -14   63.49   16.80
  -9   0 -14   55.59   16.20
  -1  -1  14  106.09   13.60
  -1   1  14  122.79   14.00
  -1  -1 -14  116.59   13.20
   1  -1 -14  130.29   11.90
   1   1 -14  119.39   10.80
  -1   1 -14  103.29   10.20
  -2  -1  14   10.70   10.60
  -2  -1 -14    3.20   11.90
   2  -1 -14   13.20   11.00
   2   1 -14   17.30   12.80
  -2   1  14   19.30   11.60
  -2   1 -14   33.90   12.00
  -2   1  14   11.70   12.20
  -2   1 -14   13.40   10.40
  -3   1 -14  751.02   11.90
  -3  -1 -14  692.43   14.90
   3  -1 -14  697.33   14.10
   3   1 -14  726.53   13.20
  -3   1  14  729.13   15.90
  -3  -1  14  735.73   13.00
  -3   1 -14  711.83   15.00
   4   1 -14  179.38   12.70
  -4   1  14  177.78   10.70
  -4  -1 -14  192.98   11.10
  -4   1 -14  196.38    9.10
  -4  -1  14  170.78   10.00
  -4  -1 -14  175.28   13.90
   4  -1 -14  174.98   13.90
  -5  -1  14 1173.38   15.20
  -5   1 -14 1252.67   13.70
  -5  -1 -14 1272.07   15.10
   5  -1 -14 1130.19   17.10
   5   1 -14 1164.78   16.00
  -5   1  14 1172.38   16.00
  -6  -1  14   11.00   11.90
   6   1 -14   20.90   13.00
  -6   1 -14   12.00   11.60
  -6  -1 -14   20.20   11.30
   6  -1 -14   12.20   10.90
  -6   1  14   18.90   10.20
  -7  -1  14  751.22   15.00
  -7   1 -14  854.51   15.30
  -7  -1 -14  829.42   15.10
   7   1 -14  746.33   16.20
   7  -1 -14  705.53   13.90
  -7   1  14  789.22   15.50
  -8  -1  14   43.70   13.70
  -8   1 -14   26.20   13.80
   8  -1 -14   29.20   15.70
   8   1 -14   43.10   14.70
  -8  -1 -14   42.70   13.70
  -8   1  14   49.50   14.70
  -9  -1  14  313.67   16.90
   9  -1 -14  249.97   15.20
   9   1 -14  252.77   17.80
  -9  -1 -14  310.97   16.90
  -9   1 -14  311.47   17.70
  -9   1  14  296.27   17.00
   0   2 -14   43.20   12.40
   0   2  14   45.20   12.90
   0  -2 -14   44.60   14.50
  -1   2  14   63.49   11.30
  -1   2 -14   75.09   11.80
  -1  -2 -14   73.29   13.20
  -1  -2 -14   73.29   17.60
   1  -2 -14   75.99   14.70
  -1   2 -14   74.09   21.10
  -1  -2  14   71.59   10.90
   1   2 -14   69.69   13.20
  -2   2 -14  370.26   13.10
   2  -2 -14  390.96   15.90
  -2   2  14  392.86   15.50
  -2  -2  14  400.36   14.50
  -2  -2  14  370.36   21.30
   2   2 -14  371.16   14.00
  -2   2  14  402.56   16.80
  -2  -2 -14  361.96   14.30
  -2   2 -14  390.96   12.50
  -3   2 -14   22.00   10.80
   3  -2 -14   23.90   13.80
  -3   2 -14   22.10   11.60
  -3   2  14   20.10   13.60
   3   2 -14   14.30    9.80
  -3  -2 -14   23.80   12.80
  -3  -2  14    9.00   12.00
  -3   2  14   21.10    8.80
  -4   2  14   37.40   13.20
   4   2 -14   26.60    9.60
  -4  -2 -14   25.50   10.60
  -4   2 -14   33.00    8.80
  -4  -2  14   27.70   10.90
  -4  -2 -14   38.10   13.10
   4  -2 -14   23.10   11.40
  -5  -2 -14  177.48   10.70
  -5   2 -14  158.58    9.40
  -5  -2  14  166.58   11.80
   5  -2 -14  149.19   14.30
   5   2 -14  164.98   12.70
  -5   2  14  166.38   11.10
  -5  -2 -14  170.58   14.10
  -6  -2  14   21.90   11.90
   6   2 -14   29.90   12.70
  -6   2 -14    7.20    9.40
  -6  -2 -14   17.10   11.30
   6  -2 -14   12.40   14.50
  -6   2  14   19.70   13.00
  -7  -2  14   60.09   12.90
  -7   2 -14   58.99   13.00
  -7  -2 -14   66.09   12.40
   7  -2 -14   58.39   15.10
   7   2 -14   63.89   13.30
  -7   2  14   66.69   13.50
  -8  -2  14   26.90   13.70
  -8   2 -14   26.70   13.80
   8  -2 -14   35.00   15.70
  -8  -2 -14   24.20   13.50
   8   2 -14   11.80   14.50
  -8   2  14   30.60   11.90
  -9  -2  14   10.60   14.80
   9  -2 -14   13.20   17.80
   9   2 -14   12.40   15.90
  -9  -2 -14  -10.80   18.20
  -9   2 -14   12.40   16.50
  -9   2  14    3.60   13.60
   1   3 -14   25.50    9.70
  -1  -3 -14   32.90   13.80
  -1  -3  14   26.40   12.50
  -1   3 -14   28.30   11.30
   1  -3 -14   25.30   14.60
  -1  -3 -14   33.60   13.80
  -1   3  14   20.70   13.90
  -1  -3  14   32.10   14.50
  -1   3 -14   29.80   15.70
  -2  -3  14    5.10   12.80
   2  -3 -14    4.20   11.70
  -2  -3 -14   12.50   10.10
  -2   3  14   15.10   16.10
  -2  -3 -14    8.30   14.60
  -2  -3  14   10.10   16.50
  -2   3 -14    7.00   11.60
   2   3 -14    9.30   12.20
  -2   3  14    7.20   11.80
  -2   3 -14    7.40   10.20
   3  -3 -14 1044.90   18.00
  -3   3 -14 1059.59   14.50
  -3  -3 -14 1033.00   17.40
  -3   3  14  995.10   17.60
  -3  -3  14 1045.10   15.40
   3   3 -14 1018.80   16.10
  -3   3  14 1061.29   14.80
  -3   3 -14 1006.90   13.00
  -4  -3 -14    2.30   10.00
   4   3 -14    6.20   11.60
  -4   3 -14    3.40   11.50
  -4  -3  14    5.60    8.90
  -4  -3 -14    0.10   13.50
   4  -3 -14   11.20   14.60
  -4   3  14    7.80   11.50
  -4   3  14    0.30    9.40
  -5  -3 -14  621.74   16.50
  -5  -3 -14  631.84   12.70
  -5   3 -14  614.84   13.30
  -5  -3  14  562.54   12.20
   5  -3 -14  599.74   16.40
  -5   3  14  623.04   15.40
   5   3 -14  577.04   14.10
  -6   3 -14  184.18   12.70
  -6  -3 -14  197.28   11.40
  -6  -3  14  170.98   12.30
   6   3 -14  184.48   13.30
  -6   3  14  179.48   11.90
   6  -3 -14  172.18   16.00
  -6  -3 -14  203.98   15.30
  -7  -3  14  945.51   15.40
  -7   3 -14 1004.60   16.20
  -7  -3 -14  991.20   16.20
   7  -3 -14  883.01   18.50
   7   3 -14  929.11   16.70
  -7   3  14  960.70   16.80
   8   3 -14    5.70   14.40
  -8  -3  14    3.50   10.40
   8  -3 -14    4.70   16.30
  -8  -3 -14    9.30   15.70
  -8   3 -14    8.20   14.20
  -9  -3  14   74.69   15.40
   9  -3 -14   78.49   18.50
   9   3 -14   85.79   16.40
  -9   3 -14  109.69   14.10
  -9  -3 -14   67.69   18.10
  -9   3  14   60.89   14.40
   0   4 -14   62.39   11.80
   0  -4 -14   53.59   14.20
   0   4  14   53.69   12.00
   1   4 -14    7.70   11.80
  -1   4  14   10.80   15.70
   1  -4 -14    9.30   11.70
  -1   4 -14   14.10    9.20
  -1   4  14   10.50   11.50
  -1  -4 -14   12.50   11.50
  -1  -4  14    8.30   13.10
  -1  -4 -14   16.70   13.30
  -1   4 -14   14.70   12.70
   2  -4 -14   13.90   14.40
  -2  -4 -14   13.50   13.40
  -2   4  14   16.00   13.50
  -2  -4 -14   16.10   13.00
  -2  -4  14   17.20   15.30
   2   4 -14   16.60   12.10
  -2   4  14   16.40   12.10
  -2   4 -14   15.20    9.50
  -2   4 -14    5.10    9.00
  -2  -4  14   18.40   12.20
  -3   4  14   17.30   12.10
  -3   4 -14   13.30   10.90
  -3  -4  14   17.50   13.80
   3   4 -14   11.10    9.50
  -3  -4  14   15.90   11.30
  -3  -4 -14    5.80   14.70
  -3   4  14   13.20    9.60
  -3   4 -14   13.30    8.30
   3  -4 -14   13.10   13.40
  -4  -4  14    4.70   10.80
  -4  -4 -14    9.30    9.50
   4   4 -14   -0.60   11.60
  -4   4 -14   11.00    9.50
  -4  -4 -14   13.80   12.10
   4  -4 -14   19.50   11.80
  -4   4  14    5.50   14.70
  -4   4  14   12.40    9.30
  -4   4 -14   -0.90    7.00
  -5  -4 -14    2.60   10.20
  -5   4 -14    8.80    9.70
  -5  -4  14    7.80   11.10
   5  -4 -14    3.50   15.00
  -5   4  14   15.40   11.90
  -5  -4 -14   10.70   13.30
   5   4 -14   11.20   12.00
  -5   4  14    5.70    9.80
  -6   4 -14    9.20   12.20
  -6  -4 -14    2.50   13.10
  -6  -4  14    6.40   11.60
   6  -4 -14   -0.30   12.90
  -6   4  14    9.50   14.40
  -6  -4 -14   -1.20   14.20
   6   4 -14    1.50   13.00
  -7   4 -14   37.90   10.50
  -7  -4 -14   30.40   12.40
  -7  -4 -14   38.40   15.90
  -7  -4  14   29.80   12.00
   7  -4 -14   29.70   13.70
   7   4 -14   37.60   13.20
  -8  -4 -14   15.80   13.50
   8  -4 -14    5.70   14.50
  -8  -4  14   13.60   13.40
  -8  -4 -14   12.40   17.00
  -8   4 -14   23.70   14.90
   8   4 -14    9.80   14.20
   9  -4 -14   26.70   19.10
   9   4 -14   12.10   15.80
  -9  -4 -14   20.50   18.20
  -9   4 -14   17.00   13.90
  -9  -4 -14    9.90   15.80
  -9   4  14   19.10   14.50
   1   5 -14    7.00    9.30
   1  -5 -14    2.50   13.30
  -1   5 -14    1.80    8.90
  -1   5 -14    2.10   11.30
  -1   5  14    2.10   13.80
  -1   5  14    3.60   13.80
  -1  -5 -14    6.20   15.20
  -1  -5 -14    4.20   10.40
  -1  -5  14    3.00   12.50
  -2   5 -14   38.00   11.30
  -2  -5 -14   40.10   15.40
   2  -5 -14   37.10   14.00
  -2   5  14   32.00   17.90
  -2   5 -14   42.40    8.90
  -2  -5 -14   36.30   12.50
  -2   5  14   41.70   11.10
  -2  -5  14   31.60   13.60
  -2   5 -14   38.20    9.80
   2   5 -14   40.80   11.70
  -2  -5  14   42.30    9.70
  -3   5  14  453.45   18.40
  -3   5 -14  477.05   11.60
  -3  -5  14  486.95   11.50
  -3  -5 -14  494.15   14.90
  -3  -5 -14  501.35   15.60
   3   5 -14  487.35   13.50
  -3  -5  14  497.95   14.90
  -3   5  14  499.45   11.40
  -3   5 -14  479.25   10.00
   3  -5 -14  476.25   12.80
  -4  -5 -14  231.38   10.90
  -4   5  14  226.68    9.90
   4   5 -14  223.78   10.60
  -4   5 -14  236.58   10.50
  -4  -5  14  235.08   12.20
  -4  -5  14  226.58   11.70
   4  -5 -14  240.58   12.00
  -4   5  14  249.28   16.50
  -4  -5 -14  251.47   13.90
  -4   5 -14  228.88    8.50
  -5  -5  14  541.05   11.50
  -5  -5 -14  577.74   14.20
  -5   5 -14  586.54   14.30
  -5  -5 -14  565.84   16.20
   5  -5 -14  525.15   14.10
  -5   5  14  562.74   14.40
  -5   5  14  526.85   11.30
   5   5 -14  538.65   14.10
  -5   5 -14  510.85    9.90
  -6   5 -14   21.40   13.20
  -6  -5 -14   20.60   12.90
   6  -5 -14   22.30   13.00
  -6   5  14   21.00   12.40
  -6  -5 -14   17.70   13.90
   6   5 -14   30.70   12.50
  -6  -5  14   22.40   10.90
  -6   5  14   19.00    9.30
  -6   5 -14   22.80    8.60
  -7   5 -14  241.78   10.80
  -7  -5 -14  397.26   15.60
  -7  -5 -14  403.96   17.30
   7  -5 -14  366.06   15.50
  -7   5 -14  406.46   12.90
   7   5 -14  367.66   14.80
  -7   5  14  352.16   16.70
  -7  -5  14  378.46   13.60
  -7   5  14  273.27   12.10
  -8   5 -14   43.80   10.70
  -8  -5 -14   97.79   17.00
   8  -5 -14   83.79   18.90
   8   5 -14   87.19   17.50
  -8  -5 -14   85.19   16.30
  -8   5 -14   94.39   15.80
  -8   5  14   93.49   14.00
  -8  -5  14   79.69   13.80
  -8   5  14   56.79   12.30
   0  -6 -14   23.30   12.60
   0   6  14    8.60   11.60
   0   6 -14   18.50   11.40
   0  -6 -14   19.10    8.90
   1  -6 -14   26.80   12.30
   1   6 -14   27.60    9.00
  -1  -6 -14   28.60   13.50
  -1   6  14   27.30   13.90
  -1   6 -14   22.00   11.10
  -1   6  14   25.50   13.90
  -1   6 -14   27.30    9.00
  -1  -6 -14   24.40   10.20
  -1  -6  14   23.40   11.90
  -2   6 -14  118.09   11.80
  -2  -6 -14  129.69   12.70
  -2   6  14  142.79   17.80
  -2   6  14  137.19   12.10
  -2   6 -14  137.19   11.20
  -2   6 -14  133.29   10.40
  -2  -6  14  120.79   12.60
   2   6 -14  135.39   11.90
  -2  -6 -14  149.29   13.80
   2  -6 -14  125.29   12.50
  -3  -6 -14   19.90   13.30
  -3  -6 -14    9.40   12.50
  -3   6 -14   -0.70   12.00
   3   6 -14    0.00   12.00
  -3  -6  14   13.90   14.70
  -3   6  14    8.60    8.60
  -3   6 -14   13.30    7.80
  -3  -6  14    9.00   11.20
   3  -6 -14   17.50   13.20
  -3   6  14   15.60   18.00
  -4  -6 -14   22.50   10.00
   4   6 -14   13.10   11.00
  -4   6 -14   13.50    9.80
  -4  -6  14   19.60   10.50
  -4  -6 -14   28.50   12.50
  -4  -6 -14   18.90   15.20
  -4  -6  14   24.60   11.30
   4  -6 -14   18.80   13.70
  -4   6  14   31.00   13.40
  -4   6  14   18.00    9.30
  -4   6 -14   24.80    7.90
  -5   6 -14    8.20   10.20
  -5  -6 -14    4.40   10.60
  -5  -6  14    4.40   11.10
  -5  -6  14    3.80   11.00
   5  -6 -14   13.50   14.40
  -5   6  14   13.90   15.70
  -5  -6 -14    3.90   13.40
  -5   6  14    7.20   10.20
  -5   6 -14    0.60    8.40
   5   6 -14    4.90   11.90
  -6  -6 -14   39.50   14.00
  -6  -6  14   38.90   11.90
  -6   6 -14   32.60   13.60
  -6  -6 -14   39.60   12.90
   6  -6 -14   38.20   15.60
  -6   6  14   32.50   13.10
   6   6 -14   37.00   12.60
  -6   6  14   27.40   10.00
  -6   6 -14   30.80    8.90
  -7  -6  14    4.20   12.30
  -7  -6 -14   -4.60   17.00
  -7   6 -14   -4.80   12.00
   7  -6 -14   14.20   17.50
  -7  -6 -14    9.10   14.30
   7   6 -14   -1.00   13.30
  -7   6  14    0.00   13.30
  -7   6  14   -1.20    8.80
  -7   6 -14   -0.80    9.60
  -8  -6  14   11.70   13.50
   8   6 -14   11.50   16.50
   8  -6 -14   10.20   16.20
  -8   6 -14   -3.30   12.90
  -8  -6 -14   18.60   18.00
  -8  -6 -14    0.60   16.30
  -8   6  14    7.30   12.00
  -8   6 -14   11.90   10.70
   1  -7 -14  445.06   14.00
  -1   7  14  457.65   16.40
   1   7 -14  428.36   12.70
  -1  -7 -14  439.36   14.90
  -1   7 -14  452.05   12.60
  -1   7 -14  437.46   12.10
  -1  -7 -14  440.96   12.10
  -1  -7  14  434.16   14.80
  -1   7  14  417.16   13.60
  -2   7 -14   89.79   13.10
  -2   7  14   82.39   15.30
  -2  -7 -14  100.99   14.90
  -2   7  14   78.89   10.30
  -2   7 -14   80.09    9.70
  -2   7 -14   84.09   11.00
  -2  -7 -14  104.39   12.60
  -2  -7  14   77.79   13.30
   2   7 -14   84.09   12.10
   2  -7 -14   83.69   10.50
  -3  -7  14   10.90   11.90
  -3   7  14    4.60    9.40
  -3   7 -14    8.50   10.00
   3   7 -14    8.40   11.20
  -3  -7 -14    7.90   11.10
  -3   7 -14    1.90    8.10
   3  -7 -14   18.40   12.60
  -3  -7 -14   13.50   14.20
  -3   7  14   10.00   19.30
  -4  -7 -14   -2.50   14.60
   4   7 -14   -5.30   11.30
  -4  -7 -14   -2.80   11.10
  -4   7 -14   14.20   10.50
  -4  -7 -14   10.70   12.40
  -4  -7  14    4.90   10.90
   4  -7 -14   -3.10   11.10
  -4   7  14   -0.90    8.90
  -4   7 -14    3.90    7.90
  -4   7  14    8.90   17.30
  -4  -7  14    3.80   10.70
  -5  -7  14  529.35   13.70
   5  -7 -14  565.24   15.80
  -5  -7  14  523.35   13.40
  -5   7 -14  555.64   15.20
  -5  -7 -14  533.35   15.50
  -5  -7 -14  566.04   18.90
  -5  -7 -14  564.34   15.40
  -5   7  14  499.95   15.40
  -5   7  14  504.45   12.20
  -5   7 -14  494.45   10.50
   5   7 -14  538.95   14.30
  -6   7 -14  160.58   12.40
  -6  -7 -14  167.58   15.40
  -6  -7  14  142.99   12.10
   6  -7 -14  154.68   16.00
  -6  -7 -14  153.38   16.00
  -6   7  14  146.09   14.40
   6   7 -14  146.99   13.50
  -6  -7  14  158.58   12.40
  -6   7  14  139.49   10.70
  -6   7 -14  121.39    9.40
  -7   7  14   52.99   17.30
   7  -7 -14   48.00   14.30
  -7   7 -14   45.40   13.00
   7   7 -14   45.10   13.40
  -7  -7 -14   50.09   16.70
  -7  -7 -14   46.80   16.90
  -7  -7  14   37.80   12.70
  -7   7  14   33.80   11.30
  -7   7 -14   31.50   10.00
   8  -7 -14   28.80   19.70
   8   7 -14    2.20   14.70
  -8  -7  14   10.20   16.00
  -8   7 -14    6.60   17.20
  -8   7  14  -10.20   15.50
  -8  -7 -14   11.00   18.50
  -8  -7 -14   16.60   18.00
  -8   7  14   22.30   13.00
  -8   7 -14    4.60   11.20
   0  -8 -14  430.46   13.60
   0   8  14  439.96   14.50
   0   8 -14  447.26   13.10
   0  -8 -14  447.26   11.70
   0  -8  14  458.25   12.10
  -1   8 -14  111.79   12.60
  -1  -8 -14  112.89   14.10
   1   8 -14  103.09   11.60
  -1   8  14  123.29   11.80
  -1   8 -14  118.19   12.10
  -1   8  14   94.39   14.60
  -1   8 -14   95.99   11.20
  -1  -8 -14  105.69   11.10
  -1  -8  14  105.49   10.90
   1  -8 -14  106.09   12.50
  -2   8 -14   84.99   10.60
  -2  -8  14   74.29   14.00
  -2   8  14   95.89   17.30
  -2  -8 -14   85.09   14.30
  -2   8  14   85.49   12.30
  -2   8 -14   87.99    9.20
  -2   8 -14   90.79   11.40
  -2  -8 -14   85.19   12.50
   2   8 -14   84.79   11.80
   2  -8 -14   72.29   12.10
  -3  -8 -14   11.10   12.50
  -3   8 -14   12.20   12.20
   3   8 -14   14.50   11.80
  -3  -8 -14   14.20   14.90
  -3  -8 -14    7.40   11.90
  -3  -8  14   14.10   14.50
  -3   8  14    6.50   11.50
   3  -8 -14    8.70   10.80
  -3   8 -14   14.00    7.90
  -3   8  14    7.60   20.40
   4   8 -14  244.18   14.90
  -4  -8 -14  249.38   14.10
  -4   8 -14  246.28   12.00
  -4  -8 -14  244.48   13.30
  -4  -8  14  233.98   12.50
   4  -8 -14  257.17   14.10
  -4   8  14  236.58   10.90
  -4  -8 -14  250.47   17.80
  -4   8 -14  234.38    9.50
  -4   8  14  244.38   19.20
  -5   8 -14   38.50   14.20
  -5  -8 -14   30.40   14.00
  -5  -8 -14   43.00   13.20
   5  -8 -14   38.30   14.50
  -5  -8  14   30.70   13.70
  -5   8  14   23.90   14.80
  -5   8  14   31.80   10.60
  -5   8 -14   30.90    9.00
  -5  -8  14   32.30   11.10
   5   8 -14   31.30   12.00
  -5  -8 -14   39.80   17.20
  -6  -8  14   -2.80   13.80
  -6  -8 -14    4.50   19.00
  -6   8 -14    1.30    9.30
  -6   8 -14   -9.80   14.70
   6  -8 -14    5.40   12.60
  -6  -8 -14   -2.20   13.90
   6   8 -14    3.10   14.50
  -6  -8  14   -3.70   11.70
  -6  -8 -14    5.70   15.00
  -6   8  14    1.50   14.00
  -6   8  14    4.00   10.60
  -7   8  14   23.30   18.40
  -7  -8 -14   14.40   19.20
   7  -8 -14   20.00   14.30
  -7   8 -14    9.00   13.30
  -7  -8 -14   13.50   14.30
  -7  -8  14   12.90   12.60
  -7  -8  14   19.40   15.10
   7   8 -14   13.10   15.50
  -7  -8 -14    7.50   16.60
  -7   8  14    7.50   11.80
  -7   8 -14   11.60    8.20
  -8  -8 -14    7.10   12.60
  -8  -8  14    0.90   14.30
  -8  -8 -14    8.10   22.50
   8  -8 -14   19.30   20.00
   8   8 -14    5.10   14.70
  -8  -8  14    6.90   13.90
  -8   8 -14   -7.90   15.20
  -8   8  14   10.80   15.90
  -8   8  14   10.40   13.30
  -8   8 -14   -0.30   11.60
  -8  -8 -14    2.50   22.90
  -1  -9 -14   63.59   13.70
  -1   9 -14   73.99   12.60
   1   9 -14   60.59   11.00
  -1   9  14   62.49   14.00
  -1   9 -14   53.89   10.60
  -1   9  14   68.29   16.20
  -1   9 -14   52.99    9.10
   1  -9 -14   63.39   11.50
  -1  -9 -14   54.29    9.60
  -1  -9  14   57.49   10.80
  -2   9 -14    3.00   12.80
  -2  -9 -14    6.20   13.20
  -2   9  14    5.20   16.20
  -2   9 -14   -3.30    8.80
  -2   9 -14    4.70   11.00
   2  -9 -14   -4.40   11.00
  -2  -9 -14    2.70   12.20
  -2  -9  14    3.90   11.70
   2   9 -14   11.00   13.00
  -2   9  14   -5.20   11.00
  -3  -9 -14  165.08   13.70
  -3   9 -14  190.78   13.80
  -3  -9 -14  179.68   16.80
   3   9 -14  186.98   12.60
  -3   9 -14  178.58    9.30
   3  -9 -14  177.48   10.70
  -3  -9 -14  173.48   12.40
  -3  -9  14  184.68   13.40
  -3   9  14  190.28   11.00
  -3   9  14  178.08   19.90
   4   9 -14  107.59   12.50
  -4   9 -14  104.39   14.20
  -4  -9 -14  112.49   15.40
  -4  -9  14  105.59   12.20
  -4  -9 -14  111.09   19.20
   4  -9 -14  128.79   13.30
  -4  -9 -14  116.09   13.30
  -4   9 -14  105.29    9.40
  -4   9  14  115.39   10.90
  -4   9  14  118.79   18.70
  -5   9 -14    1.40   14.50
  -5  -9  14   11.90   11.60
  -5  -9 -14    3.60   16.30
   5  -9 -14   16.30   13.40
  -5  -9 -14    1.10   19.60
  -5   9 -14    6.80    9.10
  -5  -9 -14    9.30   13.40
  -5   9  14   10.20   17.70
  -5   9  14    5.40   10.70
   5   9 -14   11.30   11.80
  -6  -9  14   -5.70   12.00
  -6   9 -14   16.30   12.70
   6  -9 -14    1.30   15.20
  -6  -9 -14   11.40   11.30
  -6   9  14   -7.70   15.00
  -6  -9 -14    6.60   22.90
   6   9 -14   12.80   12.70
  -6  -9 -14    5.00   21.50
  -6   9  14    4.30   11.10
  -6   9 -14    3.50    8.00
  -7  -9 -14   38.00   28.50
  -7  -9  14   37.70   13.20
   7  -9 -14   25.40   17.50
  -7   9 -14   48.60   17.40
  -7  -9 -14   26.10   15.40
  -7  -9  14   38.20   12.90
   7   9 -14   34.90   15.90
  -7  -9 -14   41.20   29.70
  -7   9  14   50.09   12.80
  -7   9 -14   28.90   10.80
   0  10 -14  620.04   13.50
   0  10  14  669.63   16.80
   0 -10 -14  645.94   16.00
   0  10 -14  664.93   13.40
   0 -10 -14  663.43   11.60
   0 -10  14  647.24   13.10
  -1  10 -14   -1.20   11.90
  -1  10  14    3.90   13.60
   1  10 -14   -0.50   11.00
  -1  10 -14    2.30   10.40
  -1  10 -14    3.40   11.20
   1 -10 -14    5.80   12.80
  -1 -10 -14    2.50   10.90
  -1 -10 -14    3.60   13.10
  -1 -10  14    4.60   12.80
  -2  10 -14  527.35   15.00
  -2  10  14  550.04   17.70
  -2  10 -14  542.35   13.60
  -2 -10  14  511.45   14.50
  -2  10 -14  538.45   11.80
  -2  10  14  577.34   13.50
   2 -10 -14  541.05   13.70
   2  10 -14  514.95   14.30
  -2 -10 -14  494.05   12.80
  -2 -10 -14  515.65   18.10
  -3 -10 -14   96.69   17.40
  -3 -10 -14   97.79   15.00
  -3  10 -14  111.19   14.40
   3  10 -14  101.89   14.20
   3 -10 -14  109.09   12.70
  -3  10 -14   98.39    9.50
  -3 -10 -14   93.39   12.40
  -3  10  14  110.99   11.30
  -3 -10  14  108.59   13.30
  -3  10  14  107.69   18.10
  -4 -10 -14  121.49   22.20
   4  10 -14  121.99   14.70
  -4 -10 -14  139.79   13.70
  -4 -10  14  139.89   12.30
  -4  10 -14  154.98   12.90
  -4 -10 -14  136.39   19.60
   4 -10 -14  143.39   13.80
  -4  10  14  138.09   11.60
  -4  10 -14  139.89   10.20
  -4  10  14  125.09   16.20
  -5  10 -14   26.00   15.00
   5 -10 -14   18.80   14.30
  -5 -10 -14   13.90   13.80
  -5 -10  14   23.70   11.70
  -5  10  14    9.00   11.10
  -5  10 -14    7.50    9.80
  -5  10  14   11.40   18.80
   5  10 -14   19.10   14.10
  -6 -10  14   13.60   12.30
   6 -10 -14  -11.10   15.50
  -6  10 -14   13.00   13.50
  -6 -10 -14    8.70   14.20
   6  10 -14    0.00   14.80
  -6  10  14   12.00   19.10
  -6  10  14    3.90   12.00
  -6  10 -14    3.50   10.20
   7 -10 -14   17.90   17.50
  -7 -10 -14    8.40   14.90
   7  10 -14   27.10   16.30
  -7  10 -14   42.60   18.60
  -7 -10  14   23.90   13.20
  -7  10  14   25.80   16.70
  -7  10  14   17.00   13.20
  -7  10 -14   19.00   11.30
   1  11 -14   12.90   10.80
  -1  11 -14   19.10   12.10
   1  11 -14   15.50   11.90
  -1  11 -14   20.10   10.60
  -1  11 -14   12.30   11.40
   1 -11 -14   21.50   13.30
  -1  11  14   17.00   13.70
  -1 -11 -14   11.60   12.90
  -1 -11 -14   24.80    9.60
  -1 -11  14   19.50   11.50
  -2  11 -14    8.10   12.90
  -2  11  14    3.90   15.70
  -2  11 -14    5.70   10.20
   2 -11 -14   -0.10   12.10
   2  11 -14    9.90   12.40
  -2 -11 -14   -1.50   11.20
  -2 -11  14    2.20   12.60
  -2  11 -14    6.90   11.80
  -2  11  14   -5.70   13.70
  -2 -11 -14    0.90   16.70
  -3  11  14   14.60   18.10
  -3  11 -14    6.50   14.50
  -3 -11 -14   12.20   20.80
   3  11 -14   15.60   12.40
  -3 -11  14   12.70   12.70
   3 -11 -14   22.50   12.50
  -3  11  14   13.90   11.40
  -3  11 -14   16.50   10.20
  -3 -11 -14   18.10   12.50
  -3 -11 -14   12.70   22.60
   4  11 -14   10.30   14.10
  -4  11 -14   26.00   14.80
   4 -11 -14   20.90   10.80
  -4  11  14   21.50   11.50
  -4 -11 -14   17.20   13.20
  -4  11 -14   21.00    9.90
  -4 -11  14   23.30   12.30
  -4  11  14   13.00   19.30
  -5 -11 -14    2.30   13.80
  -5  11 -14   11.00   13.80
   5 -11 -14   11.30   13.80
  -5 -11  14   12.40   12.30
  -5  11  14   12.90   11.90
  -5  11 -14    8.70    8.40
  -5  11  14   25.50   19.20
   5  11 -14    7.40   14.80
   6  11 -14   11.60   16.00
   6 -11 -14    4.00   16.00
  -6  11 -14   -5.90   14.60
  -6 -11 -14    3.80   14.80
  -6 -11  14   15.40   12.20
  -6  11  14   22.60   16.30
  -6  11  14   18.50   12.30
  -6  11 -14   14.10   11.00
   7 -11 -14    4.90   17.60
   7  11 -14    2.40   18.10
  -7  11 -14   10.60   15.80
  -7 -11 -14   15.20   15.30
  -7 -11  14   -6.40   13.70
  -7  11  14    9.80   14.00
  -7  11 -14    2.30   12.10
   0  12  14  695.33   17.80
   0  12 -14  710.13   14.60
   0 -12 -14  681.83   16.60
   0  12 -14  687.23   14.50
   0 -12 -14  711.33   12.80
   0 -12  14  660.63   14.40
   1  12 -14   58.99   13.40
   1  12 -14   55.59   14.40
  -1  12 -14   54.69   12.60
  -1  12 -14   62.69   11.90
   1 -12 -14   58.79   13.70
  -1 -12 -14   48.30   15.00
  -1  12  14   51.69   15.70
  -1 -12 -14   51.09   11.00
  -1 -12  14   44.80   14.80
   2  12 -14  540.55   15.80
  -2  12 -14  590.74   15.50
  -2  12  14  597.94   18.10
  -2  12  14  586.44   15.00
   2 -12 -14  607.94   14.80
  -2 -12 -14  564.74   25.40
  -2  12 -14  609.04   13.20
  -2  12 -14  615.14   14.50
   2  12 -14  605.44   17.40
  -2 -12 -14  555.44   14.10
  -2 -12  14  573.64   15.30
  -3  12  14   17.30   17.30
   3  12 -14   19.40   12.80
  -3  12 -14   15.70   14.10
  -3 -12  14   14.40   12.60
   3 -12 -14   24.40   14.50
  -3  12  14   15.00   12.20
  -3  12 -14   15.40   10.40
  -3 -12 -14   11.40   12.60
  -3  12 -14   13.50   12.10
   4  12 -14  139.59   15.50
  -4  12 -14  168.78   16.50
  -4  12 -14  152.88   11.50
   4 -12 -14  159.18   14.20
  -4  12  14  159.38   12.70
  -4 -12 -14  151.28   11.90
  -4 -12  14  161.38   13.30
  -4  12  14  149.39   20.20
   5 -12 -14   53.89   11.90
  -5  12 -14   44.10   11.40
  -5  12 -14   62.99   17.30
  -5  12  14   40.30   12.70
  -5 -12  14   55.19   12.70
   5  12 -14   44.80   17.00
  -5 -12 -14   44.00   15.00
   6 -12 -14   30.50   16.30
  -6  12 -14   30.20   15.30
   6  12 -14   18.10   19.70
  -6 -12 -14   17.10   15.20
  -6 -12  14   15.30   13.00
  -6  12  14    2.10   13.50
  -6  12 -14   23.60   11.80
  -6  12  14   29.20   17.10
   1  13 -14   39.00   14.80
   1  13 -14   31.50   13.80
  -1  13 -14   38.00   12.10
  -1  13 -14   33.40   12.70
  -1 -13 -14   38.10   17.60
   1 -13 -14   46.30   13.90
  -1 -13 -14   26.00   11.50
  -1 -13  14   30.10   13.00
  -1  13  14   48.60   15.90
   2  13 -14    3.70   13.70
  -2  13 -14    5.30   13.00
  -2  13 -14    7.60   14.30
  -2 -13  14   13.80   13.20
  -2  13  14   -1.20   15.50
   2 -13 -14    8.70   12.30
  -2  13 -14   13.00   12.40
  -2  13  14    5.90   12.80
  -2 -13 -14   17.50    9.70
   2  13 -14   -1.00   15.10
  -3  13 -14   91.79   13.20
   3  13 -14   63.09   16.10
  -3  13  14   81.09   18.00
   3  13 -14   76.19   15.50
  -3  13 -14  101.59   15.00
   3 -13 -14   89.29   13.60
  -3  13  14   82.69   12.70
  -3  13 -14   79.79   11.80
  -3 -13  14   86.29   13.10
  -3 -13 -14   77.09   13.20
   4  13 -14    4.40   15.70
  -4 -13 -14   11.90   13.90
  -4  13  14    5.90   12.60
   4 -13 -14   13.80   13.30
  -4  13 -14   -0.20   15.50
  -4  13 -14    5.60   11.20
  -4 -13  14    6.70   12.70
  -4  13  14   -0.50   19.70
   4  13 -14    2.50   16.70
  -5  13 -14    3.70    9.70
   5  13 -14    2.10   18.00
   5 -13 -14   -3.00   15.30
  -5  13 -14    1.20   14.70
  -5  13  14    0.00   13.30
   5  13 -14    7.00   18.90
  -5 -13  14   10.80   13.20
  -5  13  14   18.50   20.80
  -5 -13 -14   14.50   14.70
   6 -13 -14    6.40   16.30
  -6  13 -14    5.70   12.60
   0  14 -14  461.55   17.10
   0 -14 -14  419.56   19.60
   0  14 -14  470.55   15.50
   0 -14 -14  438.26   13.10
  -1  14 -14   27.00   13.10
   1  14 -14   31.60   14.40
  -1  14  14   29.70   16.40
  -1 -14 -14   14.90   22.60
  -1  14 -14   28.70   13.70
   1 -14 -14   18.90   14.50
  -1 -14 -14   19.10   11.80
  -1 -14  14   48.40   13.30
   1  14 -14   16.10   15.70
   2  14 -14  602.54   17.90
  -2  14 -14  667.53   16.80
   2 -14 -14  658.83   16.20
  -2  14 -14  738.13   14.90
  -2  14  14  691.13   18.80
   2  14 -14  668.73   19.60
  -2 -14 -14  649.74   15.30
  -2  14 -14  687.73   15.80
  -2 -14  14  700.03   16.70
  -2  14  14  730.13   16.60
   3  14 -14   27.00   16.40
   3  14 -14   27.70   17.20
  -3  14  14   42.90   20.70
  -3  14 -14   44.10   13.60
   3 -14 -14   29.90   13.50
  -3  14 -14   43.70   15.50
  -3  14 -14   43.00   12.40
  -3 -14 -14   31.30   14.30
  -3 -14  14   38.90   13.60
  -3  14  14   34.80   13.80
  -4  14  14   91.79   20.40
  -4  14  14   75.09   14.00
   4  14 -14   43.50   18.90
   4 -14 -14  105.09   15.30
  -4  14 -14   53.79   16.50
  -4  14 -14   83.29   12.90
  -4 -14 -14   80.89   15.20
  -4 -14  14   74.09   13.80
   4  14 -14   65.49   21.40
   5  14 -14    4.10   25.10
   5 -14 -14    7.50   15.50
  -5  14 -14    6.60   18.60
   5  14 -14   -0.90   27.30
  -5  14  14    7.20   14.40
  -5  14 -14    6.30   12.80
  -5 -14 -14   15.40   15.60
  -5 -14  14    0.90   13.70
   1 -15 -14  120.99   17.10
   1  15 -14   88.39   15.70
  -1  15 -14  108.69   14.50
  -1  15  14  121.09   17.70
   1  15 -14  119.09   17.50
  -1  15 -14  130.59   14.40
  -1 -15 -14  136.39   13.20
  -1 -15  14  126.79   14.90
   2  15 -14    3.80   16.90
   2 -15 -14    5.90   14.90
  -2  15 -14    3.30   14.50
   2  15 -14    9.50   18.70
  -2  15 -14    8.00   13.10
  -2  15 -14   -0.70   13.80
  -2  15  14    6.70   18.50
  -2 -15 -14    5.90   13.70
  -2 -15  14   12.70   14.30
   3  15 -14    5.60   20.00
   3 -15 -14   11.20   13.60
   3  15 -14    5.50   18.70
  -3  15  14    4.70   20.40
  -3  15 -14    8.90   15.70
  -3  15  14   10.00   14.80
  -3  15 -14    9.00   12.50
  -3  15 -14   17.80   14.50
  -3 -15 -14   11.20   14.40
  -3 -15  14    0.10   13.70
  -4  15  14   18.00   21.10
  -4  15 -14   15.30   13.20
   4 -15 -14   16.70   15.10
   4  15 -14    9.90   26.90
  -4  15 -14   20.10   17.20
  -4  15  14   16.20   15.00
  -4  15 -14   17.50   15.00
   4  15 -14   17.20   27.60
  -4 -15 -14    6.70   15.30
  -4 -15  14   12.70   14.00
   0  16 -14  504.55   21.20
   0  16 -14  378.26   20.00
   1 -16 -14   19.70   16.80
  -1  16  14   30.70   19.70
   1  16 -14   16.60   18.10
  -1  16 -14   27.70   14.50
  -1  16 -14   38.00   16.60
   1  16 -14   28.70   19.70
  -1 -16 -14   37.40   13.50
  -1 -16  14   35.40   15.10
   2 -16 -14  195.18   16.90
   2  16 -14  142.39   22.50
  -2  16 -14  132.59   15.90
   2  16 -14   77.09   20.60
  -2  16 -14  171.18   16.60
  -2 -16 -14  135.99   15.10
  -2  16  14  157.18   20.40
  -2 -16  14  178.18   16.40
  -3  16 -14    5.00   15.30
   3 -16 -14    5.30   16.70
  -3  16  14    8.10   15.80
   3  16 -14    0.80   24.80
  -3  16 -14    0.50   14.10
  -3 -16 -14    9.70   15.20
  -3 -16  14    1.20   11.80
   3  16 -14    4.80   28.20
  -1  -1  15  575.14   13.40
  -1  -1 -15  562.94   15.40
  -1   1  15  578.54   16.10
   1  -1 -15  582.34   15.90
  -1   1 -15  558.94   12.50
   1   1 -15  567.44   15.30
  -2  -1  15    7.30   10.90
   2  -1 -15    3.00   11.50
  -2  -1  15    5.00   22.00
  -2   1 -15    3.00    9.70
   2   1 -15   -4.30   12.80
  -2   1  15    6.60   16.30
  -2   1  15    6.60   14.90
  -2  -1 -15    5.70   10.20
  -2   1 -15    4.80   11.00
  -3   1 -15  188.38   11.00
   3  -1 -15  175.38   11.40
   3   1 -15  183.38   12.90
  -3   1  15  175.38   11.20
  -3   1 -15  174.78   12.60
  -3  -1 -15  177.68   13.30
  -3  -1  15  175.58   12.50
   4   1 -15   25.20   12.70
  -4  -1 -15   29.50   10.20
  -4   1 -15   23.70    9.00
  -4   1  15   18.70   13.20
  -4  -1 -15   22.40   12.90
  -4  -1  15   31.10   12.00
  -4   1 -15   21.40   13.00
   4  -1 -15   24.90   13.90
  -5   1  15  125.49   13.00
  -5   1 -15  125.69    9.60
  -5  -1 -15  136.29   11.20
  -5  -1  15  119.99    9.70
  -5  -1 -15  120.09   15.20
   5  -1 -15  109.29   14.10
   5   1 -15  120.09   12.80
  -6   1  15   -8.70   12.80
  -6  -1  15    7.00    9.70
  -6   1 -15   10.90   11.70
  -6  -1 -15    0.00   11.50
   6  -1 -15    5.50   11.40
   6   1 -15    2.50   13.30
   7  -1 -15    7.00   12.10
  -7  -1  15   15.90   10.60
  -7   1 -15   20.10   10.60
  -7  -1 -15    6.50   12.50
   7   1 -15   17.90   11.60
  -7   1  15   18.80   13.30
  -8  -1  15   19.60   13.60
  -8   1 -15   21.10   14.10
  -8  -1 -15   21.10   14.00
   8  -1 -15   16.00   15.80
   8   1 -15   27.20   15.00
  -8   1  15   24.20   12.00
  -9   1  15   -1.80   16.00
  -9  -1  15    9.10   15.30
   9  -1 -15    7.50   13.80
   9   1 -15   11.40   13.20
  -9  -1 -15    1.30   15.80
  -9   1 -15   28.80   16.50
   0   2 -15   20.40    9.80
   0  -2 -15   31.70   14.60
   0   2  15   31.10   10.00
  -1  -2 -15   14.50   11.60
  -1   2  15   12.80   11.30
   1  -2 -15   16.60   14.40
  -1  -2  15   14.50   12.70
  -1   2 -15   19.30    9.70
   1   2 -15   12.90   10.40
  -2  -2  15  122.39   13.10
   2  -2 -15  118.09   11.90
  -2  -2  15  108.19   19.30
   2   2 -15  118.99   13.10
  -2   2  15  112.99   12.90
  -2   2 -15   98.79   10.40
  -2  -2 -15  110.69   12.80
  -2   2  15  123.19   16.70
  -2   2 -15  117.69   11.60
  -2  -2 -15  115.29   16.50
  -3  -2  15   29.30   11.90
  -3   2 -15   28.60    8.60
   3  -2 -15   28.20   13.60
  -3  -2 -15   25.30   12.60
  -3   2  15   32.20   10.90
   3   2 -15   29.50   12.20
  -3   2 -15   25.00   11.60
  -3   2  15   27.70   11.10
  -3   2 -15   26.50    8.60
  -4  -2 -15   69.29   13.50
  -4  -2 -15   62.19    8.40
   4   2 -15   75.19   12.50
  -4   2 -15   74.19    9.20
  -4   2  15   61.99   13.40
  -4  -2  15   65.09   11.80
   4  -2 -15   70.19   11.10
  -5   2  15   19.90   13.60
  -5  -2 -15   34.20   14.20
  -5  -2 -15   25.70   10.60
  -5   2 -15   17.70   11.40
  -5  -2  15   22.00    9.20
   5  -2 -15    7.30   14.60
   5   2 -15   36.30   12.70
  -6   2 -15   14.30   11.80
  -6  -2 -15   10.60   11.20
  -6  -2  15   11.70   11.60
   6  -2 -15    8.00   14.60
   6   2 -15    5.70   12.80
  -6   2  15    8.40   11.20
  -6  -2 -15    7.30   15.00
  -7  -2  15    8.80   12.30
  -7   2 -15    9.90   10.80
  -7  -2 -15    6.30   12.30
   7  -2 -15   11.00   12.20
   7   2 -15    9.00   13.60
  -7   2  15    3.00   11.20
  -8  -2  15    6.00   13.80
  -8   2 -15   12.10   14.40
   8  -2 -15   12.80   15.80
  -8  -2 -15    9.60   13.50
   8   2 -15    6.10   14.70
  -8   2  15   16.50   14.60
  -9  -2  15   13.80   12.80
   9  -2 -15  -14.80   18.20
   9   2 -15   -3.20   13.80
  -9   2 -15   -7.20   13.60
  -9  -2 -15    5.00   16.00
  -9   2  15    8.10   17.20
  -1  -3 -15   95.49   14.60
  -1   3  15   73.69   11.90
  -1   3 -15   74.69   10.00
   1  -3 -15   98.99   15.50
  -1  -3 -15   81.79   13.70
   1   3 -15   84.59   10.50
  -2   3 -15   62.79    9.60
  -2  -3  15   70.99   10.40
   2  -3 -15   64.89   14.90
  -2  -3 -15   70.99   13.70
  -2   3  15   69.49   13.00
  -2  -3 -15   66.69   14.30
   2   3 -15   67.09   12.20
  -2  -3  15   64.39   17.50
  -2   3  15   72.89   14.80
  -2   3 -15   64.59   10.90
  -3   3 -15  164.78   11.60
   3  -3 -15  152.58   14.60
  -3   3  15  139.29   12.40
   3   3 -15  160.08   10.30
  -3  -3  15  164.98   11.90
  -3  -3  15  159.48   15.50
  -3   3 -15  147.49   10.20
  -3   3  15  160.28   11.30
  -3   3 -15  153.08   10.30
  -3  -3 -15  153.78   14.10
  -4   3  15   31.80   11.30
  -4  -3 -15   42.80    9.90
   4   3 -15   41.70    9.70
  -4   3 -15   40.10   11.60
  -4  -3 -15   44.50   13.10
  -4  -3  15   37.20    9.30
   4  -3 -15   36.80   12.20
  -4   3  15   38.90   10.00
  -5  -3 -15   32.20   10.20
  -5   3 -15   38.20   11.80
  -5  -3 -15   31.70   13.50
  -5  -3  15   31.20   11.20
   5  -3 -15   36.00   15.00
   5   3 -15   33.50   12.50
  -5   3  15   41.10   11.20
  -6  -3 -15  122.89   15.80
  -6   3 -15  122.09   12.40
  -6  -3 -15  124.79   12.10
  -6  -3  15  121.89   12.50
   6  -3 -15  104.79   12.90
   6   3 -15  119.69   10.80
  -6   3  15  136.89   14.20
  -7  -3 -15   55.29   16.70
  -7   3 -15   58.29   13.50
  -7  -3  15   61.09   12.80
  -7  -3 -15   60.29   14.70
   7  -3 -15   63.99   15.60
   7   3 -15   59.49   13.70
  -7   3  15   47.30   11.60
  -8  -3 -15   20.10   18.40
  -8  -3  15   25.60   13.20
   8  -3 -15    0.30   16.50
  -8   3 -15   25.70   14.60
   8   3 -15   11.90   14.20
  -8  -3 -15    4.00   14.10
  -8   3  15    2.60   12.70
   0   4  15  890.81   15.60
   0  -4 -15  985.90   16.10
   0   4 -15  909.61   14.70
   1   4 -15  212.68   12.80
  -1   4 -15  227.48   12.00
   1  -4 -15  251.07   15.50
  -1   4 -15  248.28   16.30
  -1  -4 -15  236.78   13.80
  -1  -4 -15  240.78   14.70
  -1  -4  15  241.08   14.80
  -1   4  15  221.38   15.00
   2  -4 -15   20.00   11.30
  -2  -4 -15   25.50   13.30
  -2  -4  15   32.00   12.20
  -2   4 -15   20.70   10.80
  -2   4  15   17.50   16.30
  -2  -4 -15   22.20   13.90
  -2   4  15   26.30   13.20
   2   4 -15   22.90    9.70
  -2  -4  15   28.00   15.30
  -2   4 -15   21.70   11.00
  -3  -4  15  114.89   15.10
  -3   4 -15  102.29   11.70
  -3   4 -15  110.49    9.60
  -3   4  15   94.69   16.00
   3   4 -15  113.29   12.10
  -3  -4 -15  102.29   15.50
  -3  -4 -15  108.59   15.00
  -3   4  15  109.39   11.20
  -3  -4  15  106.69   11.30
  -3   4 -15  106.39   10.00
   3  -4 -15  110.89   14.60
  -4   4  15  176.88   15.40
  -4  -4 -15  185.58   10.80
  -4  -4 -15  191.78   14.00
   4   4 -15  179.08   10.40
  -4   4 -15  185.38    9.90
  -4  -4  15  198.38   11.70
   4  -4 -15  181.18   12.50
  -4   4  15  188.78   10.90
  -4   4 -15  175.28    9.40
  -5  -4 -15    0.40   10.20
  -5   4 -15    1.60   11.90
  -5  -4 -15   -5.00   13.30
   5  -4 -15    9.00   15.30
  -5  -4  15    1.60    9.20
  -5   4  15   10.80   12.00
   5   4 -15    4.60   12.00
  -5   4  15   -2.70    9.50
  -5   4 -15    7.80    7.90
   6  -4 -15   11.90   13.00
  -6  -4 -15   -7.50   14.60
  -6   4 -15    7.00   10.10
  -6  -4 -15    4.60   11.40
  -6  -4  15    2.50   11.70
   6   4 -15   -1.50   12.50
  -6   4  15   23.90   14.50
  -6   4  15    4.00   10.10
  -7  -4 -15   16.40   16.10
  -7   4 -15   -1.70   11.10
  -7  -4 -15    2.90   12.50
   7  -4 -15    7.90   13.60
  -7  -4  15    8.40   12.10
   7   4 -15   -1.30   10.70
  -8   4  15   13.90   12.20
   8  -4 -15   27.80   14.70
  -8   4 -15   20.90   15.30
   8   4 -15   19.60   14.30
  -8  -4 -15   28.80   14.10
  -8  -4  15   20.40   13.50
  -8  -4 -15   19.80   19.70
  -8   4  15   23.00   13.30
   1   5 -15   20.60    9.40
   1  -5 -15   20.40   11.10
  -1   5 -15   26.10    9.10
  -1   5 -15   24.00   13.20
  -1  -5 -15   22.70   13.40
  -1  -5 -15   21.20   11.00
  -1  -5  15   23.20   12.30
  -1   5  15   19.80   13.60
  -2  -5 -15   49.90   15.90
  -2   5 -15   47.50    9.80
   2  -5 -15   58.69   13.80
  -2   5  15   44.40   16.90
  -2   5 -15   49.60   11.20
  -2   5  15   49.70   14.00
  -2  -5 -15   46.10   14.10
  -2   5 -15   56.89   11.40
  -2  -5  15   54.49   16.20
   2   5 -15   43.30   11.90
  -3   5 -15  426.66   11.10
  -3   5 -15  449.46   11.40
  -3   5  15  433.76   18.60
  -3  -5 -15  445.86   15.00
   3   5 -15  431.56   13.50
  -3  -5 -15  403.56   16.50
  -3  -5  15  443.26   17.10
  -3  -5  15  426.66   13.10
  -3   5  15  447.16   13.30
  -3   5 -15  439.76   11.60
   3  -5 -15  424.06   13.40
  -4  -5 -15  132.99   11.10
   4   5 -15  112.69   12.40
  -4   5 -15  128.89   10.10
  -4  -5  15  129.29   12.60
  -4  -5  15  120.39    9.20
  -4  -5 -15  138.59   16.40
   4  -5 -15  139.79   14.20
  -4   5  15  122.09    9.80
  -4   5 -15  120.29    8.50
  -4   5  15  130.59   15.80
  -5  -5 -15   52.59   16.90
  -5  -5  15   49.90   11.70
  -5  -5 -15   42.70   11.10
  -5   5 -15   53.59   10.20
   5  -5 -15   44.70   12.40
  -5   5  15   62.09   12.70
  -5   5  15   39.20    9.50
  -5   5 -15   39.80    7.90
   5   5 -15   41.90   12.60
  -6  -5  15  126.59   12.20
  -6   5 -15  133.79   11.20
  -6  -5 -15  135.89   13.70
  -6  -5 -15  130.69   17.30
   6  -5 -15  141.89   13.80
   6   5 -15  141.09   13.20
  -6   5  15  125.79   15.40
  -6   5  15  114.59   10.50
  -6   5 -15  100.69    9.40
  -7   5 -15  304.07   15.40
  -7  -5 -15  308.17   15.60
   7  -5 -15  327.37   18.80
   7   5 -15  305.87   14.80
  -7  -5 -15  308.37   19.40
  -7   5  15  288.57   13.90
  -7  -5  15  295.67   13.50
  -7   5  15  195.28   12.60
  -7   5 -15  267.07   10.80
  -8  -5 -15   69.89   14.50
   8  -5 -15   42.20   18.80
  -8   5 -15   66.49   13.00
   8   5 -15   63.09   15.30
  -8  -5  15   62.69   16.10
  -8  -5 -15   74.29   19.50
  -8   5  15   48.00   12.60
  -8   5 -15   37.80    9.30
   0  -6 -15    7.70   13.60
   0   6 -15    3.90    9.00
   0   6  15    3.50   12.10
  -1   6 -15  360.56   14.20
   1  -6 -15  328.47   14.40
   1   6 -15  321.07   10.90
  -1  -6 -15  362.66   15.50
  -1   6 -15  338.07   11.70
  -1   6  15  305.27   15.10
  -1  -6 -15  341.87   13.80
  -1  -6  15  340.27   14.20
   2  -6 -15 1242.18   17.30
  -2   6 -15 1219.28   16.40
  -2   6  15 1183.58   21.50
  -2   6  15 1276.67   18.90
  -2   6 -15 1203.68   13.60
  -2   6 -15 1267.17   16.50
  -2  -6 -15 1217.08   18.60
  -2  -6  15 1138.09   20.20
  -2  -6 -15 1319.37   19.10
   2   6 -15 1214.78   14.80
  -3  -6 -15  185.98   14.40
  -3   6  15  164.48   19.00
  -3   6 -15  189.78   12.90
   3   6 -15  180.88   10.40
  -3  -6 -15  157.98   14.20
  -3  -6  15  178.98   15.40
  -3  -6  15  177.08    9.70
  -3   6  15  180.08   10.80
  -3   6 -15  174.28   10.00
   3  -6 -15  190.28   14.20
  -4  -6 -15   11.50    9.90
   4   6 -15   11.80   11.70
  -4   6 -15   12.20   12.60
  -4  -6 -15   17.60   15.10
  -4  -6  15   11.80   11.00
  -4  -6 -15   18.60   13.10
   4  -6 -15    6.50   14.20
  -4   6  15   12.50    8.80
  -4   6 -15   12.40    8.20
  -4   6  15   20.10   17.00
  -4  -6  15   19.70   11.00
  -5  -6 -15   43.00   10.70
  -5   6 -15   39.90   13.10
   5  -6 -15   30.40   14.80
  -5  -6 -15   40.30   15.60
  -5  -6  15   34.30   11.20
  -5   6  15   28.00   16.10
  -5   6  15   36.80    9.90
  -5   6 -15   33.50    8.50
  -5  -6  15   38.00   11.70
   5   6 -15   33.00   12.10
  -6   6 -15   61.69   14.10
  -6  -6 -15   51.99   13.40
  -6  -6  15   43.70   11.90
   6  -6 -15   36.00   12.80
   6   6 -15   54.39   13.10
  -6   6  15   45.80   12.90
  -6   6  15   46.00   10.40
  -6   6 -15   44.90    9.10
  -6  -6 -15   52.09   16.00
  -7  -6 -15    8.90   14.60
  -7  -6  15   20.50   12.60
  -7   6 -15    2.50   14.30
   7  -6 -15   18.30   17.40
  -7  -6 -15    6.60   12.60
   7   6 -15    6.90   13.40
  -7   6  15    7.90   16.50
  -7   6  15    5.20   11.20
  -7   6 -15    6.70    9.70
  -8  -6  15   24.20   16.00
  -8  -6 -15   13.30   18.70
   8  -6 -15    5.90   16.40
  -8   6 -15   -6.60   13.60
   8   6 -15    9.80   14.60
  -8  -6 -15   12.60   16.50
  -8   6  15   12.00   12.80
  -8   6 -15    6.00   10.80
   1  -7 -15  296.97   13.90
   1   7 -15  308.27   12.40
  -1  -7 -15  327.87   14.40
  -1   7 -15  316.87   10.30
  -1   7 -15  324.27   12.70
  -1   7  15  295.37   15.20
  -1  -7 -15  310.27   11.60
  -1  -7  15  301.37   15.30
  -2   7 -15   18.30   12.20
  -2   7  15   20.40   14.00
  -2  -7 -15   18.00   14.30
  -2   7  15   18.60   11.10
  -2   7 -15   18.60    9.50
  -2   7 -15   20.70   10.90
  -2  -7 -15   23.20   12.30
  -2  -7  15   16.10   11.60
   2   7 -15   11.50   11.50
   2  -7 -15   11.40   12.60
  -3   7  15   17.10   20.10
  -3   7 -15    1.70    9.80
  -3   7  15    7.60   11.60
   3   7 -15    7.90   11.70
  -3  -7 -15   -0.30   13.70
  -3  -7  15    9.00   15.20
  -3  -7 -15    3.70   14.90
  -3   7 -15   -0.60   10.00
   3  -7 -15    3.40   10.80
  -4  -7 -15  190.08   16.60
  -4  -7 -15  181.18   12.90
   4   7 -15  178.88   12.00
  -4   7 -15  195.48   11.30
  -4  -7 -15  180.18   13.50
  -4  -7  15  177.08   12.70
   4  -7 -15  177.48   14.10
  -4  -7  15  191.78   11.40
  -4   7  15  179.68   12.50
  -4   7 -15  175.08    9.40
  -4   7  15  170.48   18.10
  -5  -7 -15  689.93   18.70
  -5   7 -15  689.63   15.70
  -5  -7 -15  666.83   15.30
  -5  -7 -15  662.33   16.20
  -5  -7  15  655.63   15.60
   5  -7 -15  676.33   16.10
  -5  -7  15  685.93   14.40
  -5   7  15  639.64   14.00
  -5   7  15  647.84   15.80
  -5   7 -15  613.24   11.30
   5   7 -15  664.53   15.00
  -6  -7  15  174.48   12.60
  -6  -7  15  170.08   14.80
  -6   7 -15  185.78   14.90
  -6  -7 -15  176.58   14.50
  -6  -7 -15  169.28   17.30
  -6  -7 -15  150.38   15.20
   6  -7 -15  176.48   15.80
   6   7 -15  169.18   13.40
  -6   7  15  188.88   17.70
  -6   7  15  158.78   11.70
  -6   7 -15  137.39    9.90
   7   7 -15  107.39   14.10
  -7   7 -15  106.99   13.30
   7  -7 -15  101.29   17.70
  -7  -7  15   95.29   13.40
  -7  -7 -15  113.09   16.00
  -7  -7 -15  106.09   20.10
  -7   7  15  101.49   14.40
  -7  -7  15  102.59   13.40
  -7   7  15   68.39   14.10
  -7   7 -15   52.39   10.50
   8  -7 -15   88.79   19.80
   8   7 -15   71.69   15.00
  -8  -7  15   27.30   11.90
  -8   7 -15   71.29   17.70
  -8  -7  15   67.99   14.60
  -8  -7 -15   40.40   21.50
  -8  -7 -15   73.59   19.50
  -8   7  15   42.40   13.70
  -8   7 -15   56.09   11.80
   0  -8 -15 1683.43   18.70
   0   8  15 1692.23   19.10
   0   8 -15 1699.13   16.90
   0  -8 -15 1680.93   16.40
  -1   8 -15  269.07   12.90
   1   8 -15  251.77   12.00
  -1  -8 -15  271.47   15.50
  -1   8 -15  265.47   10.30
  -1   8 -15  286.27   12.10
  -1   8  15  270.27   15.30
  -1  -8 -15  261.27   10.40
  -1  -8  15  254.67   12.00
   1  -8 -15  265.67   12.90
  -2   8 -15   21.10   12.30
  -2   8 -15    7.40    8.70
  -2   8  15   26.20   17.60
  -2  -8 -15   16.60   14.50
  -2   8  15   15.00   13.00
  -2   8 -15   12.50    9.50
  -2  -8 -15   14.50   10.90
   2   8 -15   15.50   11.60
  -2  -8  15   13.60   12.40
   2  -8 -15    6.20   12.60
  -3   8  15  212.08   16.90
  -3   8 -15  222.18   13.60
   3   8 -15  212.18   12.50
  -3  -8 -15  210.08   16.30
  -3  -8  15  206.98   13.90
  -3  -8 -15  204.88   12.60
  -3   8  15  204.68   11.20
  -3   8 -15  209.28   10.90
   3  -8 -15  203.58   13.60
   4   8 -15  655.83   16.20
  -4  -8 -15  639.44   16.40
  -4   8 -15  672.93   13.40
  -4   8 -15  624.74   11.60
  -4  -8 -15  646.64   15.70
  -4   8  15  655.33   13.50
   4  -8 -15  664.93   13.60
  -4  -8 -15  690.03   19.60
  -4  -8  15  646.84   14.20
  -4   8  15  611.74   20.40
  -5   8 -15   19.40   14.30
  -5  -8 -15   17.20   12.40
  -5  -8  15   24.80   12.00
  -5  -8 -15   13.20   13.80
   5  -8 -15   22.10   11.50
  -5  -8  15   16.50   11.60
  -5   8  15   22.60   10.60
  -5   8 -15   19.30    9.40
  -5   8  15   10.80   17.30
  -5  -8 -15   18.60   17.60
   5   8 -15   19.10   14.50
  -6  -8 -15   46.00   18.60
  -6   8 -15   58.09   15.80
  -6  -8  15   48.90   12.40
   6  -8 -15   45.80   12.90
  -6  -8 -15   34.60   15.00
  -6  -8 -15   52.69   15.70
  -6  -8  15   46.30   12.30
   6   8 -15   53.79   13.10
  -6   8  15   71.79   17.20
  -6   8  15   46.40   11.60
  -6   8 -15   43.90   10.00
   7   8 -15    1.80   15.70
  -7  -8 -15    3.70   19.60
   7  -8 -15   11.90   14.70
  -7   8 -15    8.50   13.50
  -7  -8 -15   15.20   15.10
  -7  -8  15    9.30   12.90
  -7   8  15   10.40   14.80
  -7  -8 -15    6.60   17.20
  -7  -8  15   12.40   12.80
  -7   8  15    4.40   12.40
  -7   8 -15    4.80   10.70
   8   8 -15    2.20   14.80
  -1   9 -15   15.70   13.00
  -1  -9 -15   27.10   13.60
   1   9 -15   21.10   11.90
  -1   9 -15   26.40   12.00
  -1   9 -15   18.60   12.40
  -1   9  15   20.80   13.80
   1  -9 -15   19.10   11.90
  -1  -9 -15   14.70    9.70
  -1  -9  15    6.80   11.20
  -2   9 -15  120.69   11.20
  -2  -9 -15  123.39   14.80
  -2   9  15  136.39   17.00
  -2   9  15  136.19   13.80
  -2   9 -15  127.19   10.20
  -2   9 -15  118.89   11.80
   2  -9 -15  119.89   12.30
   2   9 -15  125.29   12.10
  -2  -9 -15  123.19   12.80
  -2  -9  15  118.09   14.70
  -3   9 -15  465.55   11.10
  -3  -9 -15  442.56   15.40
  -3   9  15  473.55   20.80
  -3   9 -15  459.85   14.20
  -3  -9 -15  451.95   19.00
   3   9 -15  432.36   15.90
  -3   9 -15  439.96   11.20
  -3   9  15  460.45   12.20
   3  -9 -15  446.46   14.00
  -3  -9 -15  404.56   14.10
  -3  -9  15  473.25   14.90
   4   9 -15  146.69   12.90
  -4  -9 -15  150.48   15.80
  -4  -9  15  135.99   12.70
  -4   9 -15  177.58   14.30
  -4  -9 -15  145.89   18.50
   4  -9 -15  136.59   13.90
  -4  -9 -15  151.88   14.30
  -4   9 -15  145.59    9.80
  -4   9  15  129.89   19.20
  -4   9  15  162.08   11.90
  -5   9 -15  100.59   15.40
  -5   9  15  100.89   15.30
  -5  -9 -15   89.79   16.70
   5  -9 -15   87.39   12.30
  -5  -9 -15   79.59   20.10
  -5  -9  15   88.09   14.40
  -5  -9 -15   79.39   13.90
  -5   9  15   84.79   11.70
  -5   9 -15   92.79    9.90
   5   9 -15   91.49   14.50
  -6   9 -15  122.09   13.60
   6  -9 -15  124.29   15.70
  -6  -9 -15   82.09   15.00
  -6  -9  15   98.89   12.70
  -6  -9 -15   89.99   24.80
  -6  -9 -15  109.29   21.60
   6   9 -15  111.59   15.30
  -6   9  15   89.89   12.40
  -6   9  15   94.89   18.50
  -6   9 -15   73.99   11.00
   7  -9 -15   62.79   14.30
  -7   9 -15   95.79   17.90
  -7  -9 -15   54.99   15.70
  -7  -9  15   39.10   13.40
   7   9 -15   66.89   16.40
  -7  -9 -15   51.79   28.10
  -7   9  15   69.39   15.80
  -7   9  15   43.50   13.50
  -7   9 -15   57.49   11.60
  -7  -9 -15   66.19   25.70
   0  10 -15   24.40   11.80
   0  10 -15   33.50   12.00
   0 -10 -15   29.50   13.70
   0  10  15   31.20   14.30
   0 -10 -15   30.30   10.50
  -1  10 -15  157.58   13.20
   1  10 -15  175.78   13.70
  -1  10 -15  182.48   12.80
  -1  10 -15  173.08   11.60
   1 -10 -15  166.28   13.00
  -1  10  15  172.98   14.10
  -1 -10 -15  159.58   10.60
  -1 -10 -15  163.68   14.60
  -1 -10  15  155.38   12.30
  -2  10 -15  610.84   15.60
  -2  10  15  613.64   17.70
  -2  10 -15  640.34   12.20
  -2  10  15  640.84   16.50
  -2  10 -15  633.64   13.00
   2 -10 -15  607.74   14.50
   2  10 -15  600.14   16.30
  -2 -10 -15  568.44   13.30
  -2 -10  15  567.54   17.40
  -2 -10 -15  595.74   17.60
  -3 -10 -15   71.69   17.70
  -3  10  15   78.49   18.60
  -3 -10 -15   60.59   15.10
  -3  10 -15   86.49   13.60
   3  10 -15   75.59   14.40
  -3 -10  15   71.89   13.10
  -3  10  15   72.49   11.60
  -3  10 -15   71.49   10.20
  -3 -10 -15   77.29   12.50
   3 -10 -15   82.39   12.80
  -3  10 -15   77.09   11.60
  -4 -10  15    0.40   13.90
   4  10 -15   -5.10   15.00
  -4 -10 -15    1.10   20.30
  -4  10 -15   12.00   11.70
  -4 -10 -15    6.10   17.90
   4 -10 -15    8.40   11.20
  -4 -10 -15    0.50   13.70
  -4  10  15    3.50   12.90
  -4  10 -15    3.30   10.00
  -4  10  15   10.50   19.10
  -5 -10 -15   11.90   26.90
  -5  10 -15   25.40   15.40
   5 -10 -15   15.70   14.70
  -5 -10 -15   23.10   14.00
  -5 -10  15    8.90   12.10
  -5  10  15    6.80   11.80
  -5 -10 -15   13.90   24.70
  -5  10 -15   16.00   10.40
  -5  10  15   24.30   19.10
   5  10 -15    8.80   13.00
  -6  10 -15   32.10   13.70
   6 -10 -15   39.10   16.30
  -6 -10 -15   21.50   14.70
   6  10 -15   21.60   15.30
  -6  10  15   27.50   12.80
  -6  10 -15   24.90   10.70
  -6  10  15   28.40   16.00
  -6 -10  15   25.50   14.50
   7 -10 -15   30.10   17.80
  -7  10 -15   -2.40   15.00
   7  10 -15   -5.10   16.60
  -7 -10 -15    0.10   12.90
  -7 -10  15    7.80   13.30
  -7  10  15   -1.10   13.80
  -7  10 -15   -1.40   12.20
  -7  10  15    1.70   19.80
   1  11 -15   53.69   11.60
  -1  11 -15   53.79   12.70
   1  11 -15   60.79   12.50
  -1  11 -15   61.09   12.00
   1 -11 -15   64.39   12.20
  -1 -11 -15   48.00   14.70
  -1 -11 -15   56.59   10.40
  -1  11  15   58.99   14.30
  -1 -11  15   49.50   12.10
  -2  11 -15    7.30   12.40
  -2  11 -15   -0.40   10.70
  -2  11 -15   12.90   11.70
  -2  11  15   12.70   15.10
  -2  11  15   18.40   12.50
   2 -11 -15    5.20   11.60
   2  11 -15    0.40   14.70
  -2 -11 -15    7.30   16.70
  -2 -11 -15   11.90   11.40
  -2 -11  15    7.80   14.90
  -3  11  15    7.30   18.20
  -3 -11 -15   -2.20   18.20
  -3  11 -15   11.70   14.20
  -3  11  15   -3.80   11.60
   3  11 -15    1.50   14.90
   3 -11 -15    1.30   12.70
  -3  11 -15    5.60   12.40
  -3  11 -15    0.30   10.70
  -3 -11 -15   -7.70   13.10
  -3 -11  15    2.00   12.80
  -3 -11 -15   -2.70   19.20
   4  11 -15   85.79   13.30
  -4  11 -15   91.09   10.60
  -4  11 -15   74.39   16.00
   4 -11 -15   90.69   13.70
  -4  11  15   89.19   12.40
  -4 -11 -15   99.09   14.00
  -4 -11  15   84.69   13.40
  -4  11  15   97.29   20.90
  -5  11 -15   98.59   16.10
   5 -11 -15  118.49   15.00
  -5 -11 -15   71.59   14.70
  -5 -11  15  102.19   12.90
  -5  11  15   90.69   12.80
  -5  11 -15   85.29   11.20
  -5  11  15   75.79   17.00
   5  11 -15   89.79   15.60
   6 -11 -15   61.29   16.10
  -6  11 -15   68.09   14.70
  -6 -11 -15   35.90   12.90
  -6 -11  15   25.50   13.20
   6  11 -15   51.79   16.20
  -6  11  15   37.10   13.80
  -6  11 -15   44.80   11.80
  -6  11  15   52.59   20.90
   0  12 -15   16.10   12.10
   0  12  15   13.70   14.60
   0  12 -15   12.60   12.30
   0 -12 -15   14.20   13.80
   0 -12 -15   18.90   10.00
  -1  12  15   48.30   16.20
   1  12 -15   39.00   11.90
   1  12 -15   41.50   14.80
  -1  12 -15   34.70   13.00
  -1  12 -15   30.60   12.30
   1 -12 -15   39.50   12.30
  -1 -12 -15   44.70   17.00
  -1 -12 -15   41.40   10.90
  -1 -12  15   37.40   12.50
  -2  12 -15  124.69   10.40
   2  12 -15  103.29   13.70
  -2  12 -15  122.49   13.80
  -2  12  15  134.79   16.10
  -2  12  15  126.29   13.60
   2 -12 -15  129.29   13.00
  -2 -12 -15  108.99   19.00
   2  12 -15  116.09   13.50
  -2  12 -15  121.79   11.90
  -2 -12 -15  112.09   12.30
  -2 -12  15  120.09   13.70
  -3  12  15   17.80   17.50
  -3  12 -15   15.40   14.30
   3  12 -15   21.20   14.80
  -3 -12 -15    0.10    6.50
  -3  12 -15   19.50   12.90
   3 -12 -15   19.50   13.00
  -3  12  15   23.30   12.70
  -3  12 -15   31.80   10.70
  -3 -12 -15   13.90   12.80
  -3 -12  15   17.20   13.60
  -4  12  15    7.20   20.20
   4  12 -15    7.80   15.10
  -4 -12  15    3.50   12.80
  -4  12 -15   -0.80   16.00
   4 -12 -15    7.40   13.80
  -4  12  15    7.30   12.90
  -4  12 -15    3.00   11.00
  -4 -12 -15   -7.30   13.90
   5 -12 -15   13.50   14.80
  -5  12 -15    3.10   17.70
  -5  12  15   11.00   13.10
  -5  12 -15    4.20   11.20
  -5 -12 -15    2.60   14.40
   5  12 -15    5.20   15.60
  -5 -12  15    7.10   12.80
  -6 -12  15    4.50   13.50
   6 -12 -15   -2.40   16.30
  -6  12 -15    3.90   15.50
   6  12 -15    4.40   18.10
  -6 -12 -15   16.40   15.70
  -6  12  15    7.10   14.40
  -6  12 -15    4.60   12.60
  -6  12  15    9.50   22.10
   1  13 -15   40.00   15.60
  -1  13 -15   29.00   12.80
   1  13 -15   28.80   12.20
  -1  13 -15   32.50   13.00
  -1  13  15   38.00   16.40
  -1 -13 -15   32.90   17.00
   1 -13 -15   42.90   14.10
  -1 -13 -15   33.30   11.50
  -1 -13  15   30.30   13.40
   2  13 -15    3.60   12.00
  -2  13  15   11.20   14.20
  -2  13 -15    2.50   13.70
  -2  13 -15   13.10   12.20
   2 -13 -15    6.90   15.00
  -2  13  15    8.20   18.40
   2  13 -15    9.40   13.50
  -2  13 -15    2.10   13.10
  -2 -13 -15   10.60   12.40
  -2 -13  15    1.30   13.70
   3  13 -15   48.30   13.90
  -3  13  15   54.89   17.50
   3  13 -15   56.39   18.20
  -3  13 -15   64.99   14.70
   3 -13 -15   52.79   13.70
  -3  13  15   53.69   14.10
  -3  13 -15   57.09   12.00
  -3 -13 -15   51.99   13.80
  -3 -13  15   57.69   13.30
  -3  13 -15   61.19   10.80
   4  13 -15    5.10   16.40
  -4  13  15   14.90   19.40
  -4  13 -15   -1.40   13.40
   4 -13 -15   -8.20   13.90
  -4  13 -15    9.40   15.80
  -4  13 -15    8.00   11.90
  -4 -13 -15   -2.50   14.10
  -4 -13  15   -1.70   13.30
  -4  13  15   16.60   13.70
   4  13 -15   15.40   17.40
   5  13 -15    6.90   16.90
   5 -13 -15    5.60   15.20
  -5  13 -15    8.50   18.20
  -5  13  15    1.70   14.40
  -5  13 -15    3.10   12.20
  -5 -13 -15   12.30   15.50
  -5 -13  15    1.80   13.30
   5  13 -15    1.90   17.70
  -5  13  15   -3.80   18.00
   0  14 -15  107.79   13.50
   0 -14 -15  109.59   16.30
   0  14 -15  125.19   14.00
   1  14 -15    9.40   14.70
  -1  14 -15   10.50   13.80
  -1 -14 -15    4.30   22.00
   1 -14 -15   -0.20   14.80
  -1  14  15   10.50   16.90
  -1 -14 -15    4.80   12.10
   1  14 -15   10.80   16.40
  -1 -14  15   11.30   14.10
  -1  14 -15   12.20   15.20
   2  14 -15   67.09   14.50
  -2  14 -15   90.39   14.80
   2 -14 -15   78.59   13.70
  -2  14 -15   82.69   10.80
   2  14 -15   75.89   16.90
  -2  14 -15   79.09   13.60
  -2  14  15   91.59   19.00
  -2 -14 -15   89.09   13.10
  -2 -14  15   81.49   14.60
   3  14 -15    6.90   15.00
   3  14 -15   16.80   17.80
  -3  14  15   20.90   17.80
   3 -14 -15    9.40   16.10
  -3  14 -15   17.20   15.20
  -3  14  15    4.80   14.20
  -3  14 -15   12.40   10.40
  -3 -14 -15   -8.20   13.80
  -3 -14  15   14.00   13.90
  -3  14 -15   14.50   13.50
  -4  14  15   50.59   20.20
   4  14 -15   20.40   17.00
   4 -14 -15   45.30   15.00
  -4  14 -15   35.60   16.90
  -4  14 -15   37.00   13.00
  -4  14 -15   44.70   14.40
  -4 -14 -15   45.00   15.30
  -4 -14  15   41.50   13.90
  -4  14  15   36.40   15.20
   4  14 -15   24.80   19.70
   1  15 -15   17.20   15.60
   1 -15 -15   28.60   15.50
  -1  15 -15   18.80   16.50
  -1  15 -15   21.70   14.40
   1  15 -15   18.80   17.70
  -1 -15 -15   26.90   13.10
  -1  15  15   38.50   19.50
  -1 -15  15   28.50   14.90
   2  15 -15    2.30   16.80
   2 -15 -15    1.50   15.30
  -2  15 -15    5.50   14.60
  -2  15 -15   -4.00   15.00
   2  15 -15    3.90   18.80
  -2 -15 -15    7.00   13.70
  -2  15  15    2.10   18.30
  -2 -15  15    4.20   15.00
   3  15 -15   22.30   18.50
  -3  15 -15   10.20   14.80
   3  15 -15    7.20   19.30
   3 -15 -15   20.60   16.60
  -3  15 -15    8.80   16.30
  -3  15  15   19.50   21.30
  -3  15  15   26.90   15.60
  -3  15 -15   22.40   13.80
  -3 -15 -15   20.00   14.60
  -3 -15  15   21.30   14.30
   4 -15 -15    2.80   15.80
  -4  15 -15    0.50   15.10
  -4  15 -15    0.10   14.30
  -4 -15 -15   10.90   16.20
   0 -16 -15  109.09   27.00
   0  16 -15  119.09   18.70
   0  16 -15  103.09   17.20
  -1  16  15    4.90   22.00
   1 -16 -15    5.70   17.60
   1  16 -15   10.10   16.30
  -1  16 -15    8.40   17.60
  -1  16 -15    0.20   15.30
   1  16 -15    3.60   18.10
  -1 -16 -15    9.60   13.60
  -1 -16  15   10.70   15.60
  -2  16  15   11.40   19.50
  -2  16 -15    0.50   15.40
   2 -16 -15    9.20   16.40
   2  16 -15   16.10   20.10
   2  16 -15   16.90   20.00
  -2  16 -15   11.40   15.80
  -2 -16 -15    7.40   14.60
  -2 -16  15   13.80   15.40
   0   0 -16 2149.19   20.50
  -1   0  16  986.80   15.40
  -1   0 -16  973.20   16.20
   1   0 -16  984.40   15.00
  -2   0  16  188.78   12.00
   2   0 -16  177.58   11.30
  -2   0 -16  187.58   14.90
  -2   0 -16  176.58   11.00
   3   0 -16  341.17   12.00
  -3   0  16  371.66   11.90
  -3   0 -16  347.77   13.50
   4   0 -16  282.97   11.40
  -4   0 -16  288.87   10.00
  -4   0  16  303.37   13.80
  -4   0 -16  261.27   14.50
  -5   0 -16  305.77   12.20
  -5   0  16  276.47   11.10
  -5   0 -16  267.07   15.00
   5   0 -16  280.67   12.00
  -6   0  16   49.90   10.60
  -6   0 -16   53.19   10.00
   6   0 -16   36.90   13.50
  -7   0  16   58.59   10.30
  -7   0 -16   57.09   10.60
   7   0 -16   53.09   14.30
   8   0 -16   30.10   15.30
  -8   0  16   22.70   11.60
  -8   0 -16   32.70   14.00
  -1  -1 -16   11.50   13.30
  -1   1 -16    4.80    9.90
   1  -1 -16   -2.50   13.30
  -1   1  16    5.60   13.70
   1   1 -16   -3.00   11.00
  -1  -1  16    1.90   13.50
  -2   1 -16   43.30   11.90
   2  -1 -16   47.50   13.30
  -2  -1  16   42.40   11.00
   2   1 -16   46.50   12.40
  -2  -1 -16   44.90   19.70
  -2  -1 -16   33.90   10.60
  -2   1 -16   49.00   14.50
  -2   1  16   37.10   14.00
  -3   1 -16  178.88   10.90
   3  -1 -16  178.18   14.10
   3   1 -16  166.08   10.90
  -3  -1 -16  175.48   13.10
  -3   1  16  185.58   13.80
  -3  -1  16  166.98   13.10
  -3   1  16  179.88   13.00
   4   1 -16  162.08   11.20
  -4  -1 -16  149.69   11.30
  -4   1 -16  160.28    9.60
  -4  -1 -16  153.28   14.10
  -4   1  16  163.28   10.80
  -4   1 -16  154.18   11.40
  -4  -1  16  154.28   10.60
   4  -1 -16  151.18   11.30
  -5  -1 -16  149.39   12.40
  -5  -1 -16  145.69    9.30
  -5   1  16  155.78   11.00
  -5   1 -16  148.59   11.30
  -5  -1  16  140.89   12.50
   5  -1 -16  133.09   13.90
   5   1 -16  132.59   12.90
  -6   1  16  123.19   10.70
  -6   1 -16  121.19   10.10
  -6  -1 -16  116.99   10.30
  -6  -1  16  116.89   12.70
   6  -1 -16  123.09   11.70
   6   1 -16  115.39   13.60
  -6  -1 -16  133.99   16.60
  -7   1  16  134.29   11.80
   7   1 -16  128.69   12.10
  -7  -1  16  142.29   13.10
  -7   1 -16  146.19   11.10
  -7  -1 -16  149.29   13.30
   7  -1 -16  128.79   12.60
  -8   1  16   93.89   12.10
  -8  -1  16   81.29   14.20
  -8   1 -16   91.59   15.00
  -8  -1 -16  106.39   15.10
   8  -1 -16   85.79   15.80
   8   1 -16   78.49   12.40
   0   2 -16   10.20   12.40
   0   2  16    7.70   12.60
   0  -2 -16   20.00   11.90
  -1  -2 -16  881.71   17.50
  -1  -2  16  893.41   16.00
  -1   2  16  857.61   15.30
   1  -2 -16  908.01   16.10
  -1   2 -16  878.21   15.10
   1   2 -16  924.51   14.40
   2  -2 -16  597.04   16.00
  -2   2 -16  568.54   12.00
  -2  -2 -16  604.94   15.10
  -2  -2 -16  599.04   21.30
   2   2 -16  576.14   14.40
  -2   2  16  657.33   28.90
  -2  -2  16  626.74   29.90
  -2   2 -16  632.94   16.90
  -2  -2  16  628.54   13.10
  -2   2  16  593.04   16.80
  -3   2 -16  774.72   13.80
  -3  -2 -16  745.73   16.20
   3  -2 -16  734.33   14.40
  -3  -2  16  753.92   14.60
   3   2 -16  746.53   14.70
  -3   2 -16  701.83   13.00
  -3   2  16  727.73   16.70
  -3   2  16  797.02   17.50
  -3   2 -16  745.93   14.20
  -4  -2 -16    5.90    8.60
  -4   2 -16    0.60    9.00
   4   2 -16    4.20   12.30
  -4   2  16   10.00   10.80
  -4  -2 -16    3.60   11.00
  -4   2 -16   -2.40   12.80
  -4  -2  16   -1.50    9.60
   4  -2 -16    1.70   11.10
  -4   2  16    3.00    9.80
  -5   2  16    1.50   10.50
  -5  -2 -16   -3.40   10.80
  -5   2 -16    3.10   11.20
  -5  -2 -16   20.10   14.70
  -5  -2  16    7.20   11.30
   5  -2 -16    7.10   14.10
   5   2 -16    9.00   12.30
  -6   2  16   92.89   13.70
  -6  -2 -16   93.39   15.80
  -6   2 -16  103.09   12.30
  -6  -2 -16   91.09   12.00
  -6  -2  16   81.39   10.60
   6  -2 -16   95.99   14.40
   6   2 -16  103.29   13.10
  -7   2  16   13.80   14.30
  -7  -2 -16   28.10   16.70
  -7   2 -16   23.70   11.20
  -7  -2  16   16.10   12.60
  -7  -2 -16   25.00   12.90
   7  -2 -16   20.30   12.50
   7   2 -16   17.60   13.70
  -8   2  16   24.50   15.30
  -8  -2 -16   38.50   18.70
  -8  -2  16   23.70   14.00
  -8   2 -16   25.20   12.10
  -8  -2 -16   33.00   13.90
   8  -2 -16   31.70   16.60
   8   2 -16   18.40   15.10
  -1   3  16    5.80   14.20
   1  -3 -16    8.20   15.10
  -1   3 -16   10.60    9.30
   1   3 -16   14.80   10.00
  -1  -3 -16   11.40   14.80
   2  -3 -16  125.09   12.40
  -2  -3 -16  133.89   14.80
   2   3 -16  124.09   10.40
  -2  -3  16  134.39   12.90
  -2   3  16  143.59   20.50
  -2  -3 -16  128.09   16.40
  -2   3 -16  115.99   11.70
  -2   3  16  125.59   16.00
  -2   3 -16  130.59   14.00
  -2  -3  16  126.99   19.70
  -3   3 -16   86.59    9.50
   3  -3 -16   86.59   12.60
  -3   3  16   87.99   12.70
   3   3 -16   75.59   12.50
  -3  -3  16   87.49   10.10
  -3  -3  16   96.69   18.20
  -3  -3 -16   98.59   14.10
  -3   3  16   88.99   12.40
  -3   3 -16   98.29   10.90
  -3   3 -16   91.49   12.70
  -4  -3  16   21.00    9.80
  -4  -3 -16   29.90   10.30
  -4   3 -16   21.90   11.10
   4   3 -16   26.90   12.00
  -4   3  16   18.00   13.70
  -4  -3 -16   18.70   13.60
  -4   3 -16   21.00   10.10
   4  -3 -16   21.00   14.20
  -4   3  16   24.80   10.00
  -4   3 -16   24.40    8.70
  -5   3  16  317.97   14.80
  -5  -3 -16  309.67   11.50
  -5   3 -16  334.37   12.80
  -5  -3 -16  334.47   15.80
   5  -3 -16  290.37   15.80
  -5  -3  16  290.97   13.00
   5   3 -16  304.97   13.70
  -5   3  16  302.87   12.10
  -6  -3 -16  238.58   16.50
  -6   3 -16  250.57   11.20
  -6  -3 -16  252.77   12.70
  -6  -3  16  228.98   10.80
   6  -3 -16  232.28   13.30
   6   3 -16  243.88   11.30
  -6   3  16  237.68   12.40
  -7   3 -16   43.40   13.00
  -7  -3 -16   35.00   12.90
  -7  -3  16   33.80   12.70
   7  -3 -16   29.50   16.00
   7   3 -16   27.80   11.60
  -7  -3 -16   28.40   16.90
  -7   3  16   37.40   14.70
  -8  -3 -16   10.20   18.50
  -8  -3  16   14.10   14.10
  -8   3 -16    9.90   15.60
   8  -3 -16   -0.70   16.80
  -8  -3 -16   11.00   16.50
   8   3 -16   16.50   14.90
  -8   3  16   17.50   15.90
   0   4  16  440.06   11.80
   0   4 -16  466.45   11.60
   0  -4 -16  489.45   13.70
   1   4 -16  832.62   14.70
  -1   4 -16  819.22   14.10
  -1   4  16  814.72   17.00
   1  -4 -16  852.41   18.00
  -1  -4 -16  875.41   17.40
  -1  -4 -16  872.61   18.80
  -2   4  16  213.68   13.90
  -2  -4 -16  210.18   14.60
   2  -4 -16  211.58   14.60
  -2   4  16  221.78   18.10
   2   4 -16  197.68   12.30
  -2  -4 -16  206.08   15.10
  -2   4 -16  211.58   13.30
  -2  -4  16  208.18   10.50
  -2  -4  16  198.58   18.20
  -2   4 -16  199.98   10.10
  -3  -4  16  199.98   11.90
  -3   4 -16  197.98   10.10
  -3   4  16  179.28   16.60
  -3   4 -16  198.98   12.50
  -3  -4 -16  207.98   14.30
   3   4 -16  202.28   12.50
  -3  -4  16  213.88   18.20
  -3  -4 -16  184.18   16.10
  -3   4  16  216.78   13.90
  -3   4 -16  201.28   10.60
   3  -4 -16  195.78   12.80
  -4  -4 -16   46.70   10.70
  -4   4  16   52.89   14.80
  -4   4 -16   52.09    9.90
   4   4 -16   46.50   11.90
  -4  -4  16   34.40   11.50
  -4  -4  16   40.40   11.90
   4  -4 -16   42.90   11.90
  -4   4  16   47.90   11.80
  -4   4 -16   45.60    9.20
  -4  -4 -16   54.39   15.90
  -5   4  16  132.49   15.00
  -5  -4  16  125.59   10.20
  -5  -4 -16  125.99   11.10
  -5   4 -16  139.29   12.40
  -5  -4 -16  116.79   14.60
   5  -4 -16  114.79   15.50
  -5   4  16  126.79   11.10
  -5   4 -16  115.09    8.60
   5   4 -16  121.59   12.50
  -6   4 -16   27.50    8.90
  -6   4 -16   41.70   10.80
  -6  -4 -16   25.60   11.60
  -6  -4 -16   39.10   15.10
   6  -4 -16   38.00   13.30
   6   4 -16   47.40   12.80
  -6  -4  16   38.30   11.70
  -6   4  16   41.20   12.40
  -6   4  16   33.30   12.00
  -7   4 -16   24.10   11.70
  -7  -4 -16   22.70   12.50
   7  -4 -16   23.70   13.50
   7   4 -16   35.70   13.80
  -7  -4  16   25.40   12.60
  -7   4  16    9.60   12.80
  -7  -4 -16   27.80   16.70
  -7   4  16   19.30   11.70
  -8  -4 -16   22.10   17.70
   8  -4 -16   29.90   14.50
  -8   4 -16   10.40   15.20
   8   4 -16   24.80   14.60
  -8  -4 -16   16.70   16.60
  -8  -4  16   21.80   14.00
  -8   4  16   25.00   16.50
  -8   4  16    7.50   15.00
   1   5 -16  174.68   10.10
  -1   5  16  166.28   14.10
  -1   5 -16  185.58   12.10
   1  -5 -16  188.98   14.50
  -1  -5 -16  204.68   14.70
  -1  -5 -16  191.58   12.60
  -1  -5  16  183.28   14.60
  -2   5 -16    4.90    9.80
   2  -5 -16    4.80   11.30
  -2   5  16   13.00   13.70
  -2   5 -16    3.20   12.60
   2   5 -16    0.30   11.90
  -2  -5 -16    4.00   13.80
  -2  -5  16    2.60   15.50
  -2   5  16   10.80   15.50
  -2  -5 -16   -1.30   14.10
  -3   5 -16    4.80   12.00
  -3  -5 -16    1.90   13.60
  -3   5  16   20.70   16.70
  -3  -5 -16    7.20   15.40
   3   5 -16    7.60   11.90
  -3  -5  16    1.10   15.10
  -3   5  16    2.10   11.60
  -3   5 -16    3.60   11.80
  -3   5 -16    3.60    8.40
   3  -5 -16   13.40   11.90
  -3  -5  16   12.60   11.30
  -4   5  16  117.99   13.60
  -4  -5 -16   98.79   12.20
  -4   5 -16   95.49   10.30
   4   5 -16  114.29   12.40
  -4  -5  16  118.69   13.70
  -4   5  16  110.99   11.60
   4  -5 -16  102.29   15.10
  -4  -5 -16  121.89   16.30
  -4   5 -16  112.09    8.60
  -4  -5  16  118.69   11.60
  -4  -5 -16  118.39   15.80
  -5  -5 -16  331.57   12.10
  -5   5 -16  328.27   11.60
  -5  -5  16  327.37   12.80
  -5  -5  16  310.27   13.60
   5  -5 -16  301.97   13.70
  -5   5  16  291.47   12.70
  -5   5 -16  278.07    9.90
  -5  -5 -16  340.77   17.40
  -5   5  16  303.47   17.00
   5   5 -16  311.07   13.50
  -6  -5  16    7.70   11.90
  -6  -5 -16    2.80   15.00
  -6   5 -16    6.10   11.40
  -6  -5 -16    1.80   11.60
   6  -5 -16   -0.50   13.50
   6   5 -16    4.70   12.70
  -6   5  16  -11.80   13.00
  -6   5  16   10.20   10.50
  -6   5 -16   -3.80    9.00
  -7  -5  16   85.39   12.70
   7  -5 -16   84.59   18.10
  -7   5 -16  102.49   15.00
  -7  -5 -16   74.19   16.30
  -7  -5 -16   98.39   12.70
   7   5 -16   80.89   14.40
  -7   5  16   61.39   12.30
  -7   5 -16   55.49   10.50
   8  -5 -16   51.29   19.20
  -8   5 -16   76.89   13.90
  -8  -5 -16   73.89   20.20
   8   5 -16   57.59   15.20
  -8  -5 -16   57.69   16.80
  -8   5  16   54.79   13.60
  -8  -5  16   65.59   14.20
  -8   5 -16   36.60   11.40
   0   6  16  929.71   16.30
   0  -6 -16 1020.90   18.40
   0   6 -16  931.71   14.40
   1   6 -16  260.17   12.70
   1  -6 -16  271.27   14.90
  -1   6 -16  264.67   12.30
  -1  -6 -16  288.47   15.40
  -1   6 -16  291.97   15.80
  -1  -6 -16  279.77   13.40
  -1  -6  16  269.97   15.10
  -1   6  16  273.47   15.20
  -2   6 -16    5.30   10.00
   2  -6 -16    6.60   13.50
  -2   6 -16   -0.20   11.60
  -2   6  16   12.50   14.10
  -2   6  16    8.20   15.40
  -2   6 -16    8.60   11.20
  -2  -6 -16   16.10   12.10
   2   6 -16   16.90   11.60
  -2  -6 -16   20.80   13.30
  -2  -6  16   14.50   13.90
  -3  -6 -16  169.98   16.80
  -3   6 -16  153.28   12.50
  -3   6  16  150.08   18.30
  -3  -6  16  161.58   10.20
   3   6 -16  161.78   12.40
  -3  -6 -16  146.79   14.30
  -3  -6  16  151.78   16.00
  -3   6  16  157.38   13.00
  -3   6 -16  152.38   10.80
  -3   6 -16  153.08    9.90
   3  -6 -16  151.28   14.30
  -4   6  16  260.57   18.30
  -4  -6 -16  256.87   11.30
  -4   6 -16  255.77   13.70
   4   6 -16  256.47   12.90
  -4  -6 -16  278.77   15.30
  -4  -6 -16  255.87   16.70
  -4  -6  16  261.57   13.70
  -4  -6  16  261.27   10.30
   4  -6 -16  256.67   15.40
  -4   6  16  260.17   11.30
  -4   6 -16  243.98   11.30
  -5  -6  16   41.40   11.70
  -5  -6 -16   42.20   12.50
  -5   6 -16   45.50   13.40
  -5  -6 -16   54.89   13.60
  -5  -6  16   44.50   13.60
  -5  -6 -16   50.89   16.70
   5  -6 -16   41.30   15.20
  -5   6  16   35.90   11.80
  -5   6 -16   39.80    8.60
  -5   6  16   41.80   14.10
   5   6 -16   40.00   12.50
  -6   6 -16   18.00   14.20
  -6  -6 -16   21.00   13.50
  -6  -6  16   13.20   14.00
   6  -6 -16   24.70   13.50
  -6  -6  16   17.30   11.80
   6   6 -16   29.40   13.10
  -6  -6 -16   21.10   16.60
  -6   6  16   19.50   12.40
  -6   6  16   34.90   16.40
  -6   6 -16   12.50   10.90
  -7  -6 -16    3.20   14.60
  -7   6 -16    7.90   15.40
  -7  -6  16   -1.20   13.00
   7  -6 -16   15.00   17.90
   7   6 -16    9.30   13.90
  -7   6  16    2.80   13.60
  -7   6  16    4.90   12.10
  -7   6 -16   -1.50   10.40
  -7  -6 -16   -2.30   17.40
  -8  -6 -16    2.60   19.20
  -8  -6  16    2.50   16.10
   8  -6 -16   -1.70   16.40
  -8   6 -16    9.40   13.90
   8   6 -16    8.50   14.80
  -8  -6 -16    3.90   16.90
  -8   6  16    6.20   14.70
  -8   6  16    4.50   16.00
  -8   6 -16   -2.60   11.20
   1  -7 -16  182.58   13.50
   1   7 -16  167.38   12.10
  -1   7 -16  176.08   10.40
  -1  -7 -16  177.28   15.80
  -1   7 -16  185.98   13.80
  -1  -7 -16  183.08   11.30
  -1  -7  16  178.18   13.40
  -1   7  16  166.08   14.50
  -2   7 -16   17.90   10.10
  -2   7 -16   12.60   11.30
  -2   7  16   17.50   17.90
  -2  -7 -16   19.80   15.20
  -2   7  16   20.80   13.60
  -2   7 -16   16.90   11.10
   2   7 -16   16.10    9.20
  -2  -7 -16   20.90   12.10
  -2  -7  16   12.80   13.90
   2  -7 -16   12.30   13.60
  -3   7 -16  481.35   12.40
  -3   7  16  497.55   17.60
  -3  -7 -16  448.36   15.60
   3   7 -16  482.45   14.60
  -3   7  16  509.55   14.60
  -3  -7  16  486.95   17.50
  -3   7 -16  489.05   12.50
  -3   7 -16  466.95   11.60
  -3  -7 -16  511.05   15.70
   3  -7 -16  481.85   12.60
  -4   7  16   25.60   15.00
  -4  -7 -16   26.40   12.30
   4   7 -16   26.80   11.80
  -4   7 -16   28.00   10.90
  -4  -7 -16   16.80   13.60
  -4  -7  16   24.20   11.50
   4  -7 -16   47.50   13.70
  -4   7  16   26.00   11.00
  -4   7 -16   18.30    8.80
  -4  -7  16   24.60   11.50
  -4  -7 -16   42.40   14.30
  -5  -7  16   -3.40   12.00
  -5  -7 -16    9.90   13.80
  -5  -7 -16    2.40   11.00
  -5   7 -16   21.70   13.70
   5  -7 -16    4.20   12.10
  -5  -7 -16    1.10   16.30
  -5  -7  16   -2.20   11.60
  -5   7  16    9.20   10.50
  -5   7 -16    3.10   10.50
  -5   7  16   21.30   17.20
   5   7 -16    6.80   12.80
  -6  -7  16    9.10   12.30
  -6   7 -16   20.20   15.40
  -6  -7 -16   -0.10   16.40
  -6  -7 -16   14.40   13.50
  -6  -7 -16    2.80   14.60
   6  -7 -16    7.50   16.40
   6   7 -16   14.40   13.30
  -6   7  16    3.90   11.10
  -6   7 -16    5.40    9.60
  -6   7  16   12.80   13.90
  -6  -7  16    5.90   12.00
  -7  -7  16   60.59   15.30
  -7  -7  16   56.79   13.50
  -7   7 -16   76.09   13.40
   7  -7 -16   86.09   18.50
  -7  -7 -16   66.29   16.10
  -7  -7 -16   65.49   20.40
  -7  -7 -16   75.79   15.50
   7   7 -16   63.49   14.50
  -7   7  16   36.50   14.60
  -7   7  16   71.49   18.20
  -7   7 -16   66.29   11.10
   8  -7 -16   34.50   17.20
  -8  -7  16    5.40   15.00
  -8   7 -16   22.00   17.40
   8   7 -16    6.00   14.90
  -8  -7 -16   19.30   19.60
  -8  -7 -16   11.50   20.10
  -8   7  16    9.20   14.70
  -8   7 -16    3.20   12.00
  -8  -7  16    0.60   14.70
   0  -8 -16   53.59   12.60
   0   8 -16   60.69   12.20
   0   8  16   49.00   12.70
  -1   8 -16   33.60   12.40
   1   8 -16   39.50   11.20
  -1  -8 -16   38.80   12.90
  -1   8 -16   35.10   10.00
  -1   8 -16   46.30   11.30
  -1  -8 -16   34.00    9.40
  -1  -8  16   26.80   12.80
   1  -8 -16   28.70   12.50
  -1   8  16   43.60   15.90
  -2   8 -16  324.47   11.60
  -2   8 -16  302.57   12.30
  -2  -8 -16  314.97   16.60
  -2   8  16  320.07   18.40
  -2   8  16  332.77   15.50
  -2   8 -16  318.47   11.80
   2   8 -16  324.47   14.30
  -2  -8 -16  300.17   13.50
  -2  -8  16  282.57   15.40
   2  -8 -16  312.77   13.90
  -3   8 -16   51.29   13.10
  -3   8  16   68.69   20.80
   3   8 -16   40.50   12.30
  -3  -8 -16   51.49   15.30
  -3   8 -16   43.60    9.00
  -3  -8 -16   38.40   11.70
  -3  -8  16   45.70   13.50
  -3   8  16   47.90   11.00
  -3   8 -16   42.70    9.70
   3  -8 -16   41.20   13.20
  -4   8  16    0.40   15.30
  -4   8  16    1.70   11.00
  -4  -8 -16   -8.40   12.10
   4   8 -16   -0.90   12.30
  -4   8 -16    2.90   11.30
  -4  -8 -16   10.20   13.30
  -4  -8  16    9.40   12.10
   4  -8 -16    1.80   11.20
  -4  -8 -16    1.70   17.20
  -4   8 -16    8.30    9.40
  -5   8 -16   10.30   12.00
  -5  -8 -16   16.80   14.60
  -5  -8 -16   14.10   16.10
   5  -8 -16    8.70   12.30
  -5  -8  16    7.30   11.60
  -5   8  16    2.40   11.00
  -5   8 -16    7.60    9.60
  -5  -8 -16   14.60   18.00
  -5   8  16   21.50   17.90
   5   8 -16   14.10   14.20
  -6  -8 -16   26.00   18.70
  -6   8 -16   17.70   15.60
  -6  -8 -16   32.10   15.40
   6  -8 -16   26.20   13.60
  -6  -8 -16   32.90   14.90
  -6  -8  16   24.30   12.70
   6   8 -16   31.70   15.20
  -6   8  16   25.00   12.20
  -6   8 -16   29.20   10.30
  -6   8  16   31.30   14.90
  -6  -8  16   34.40   12.60
  -7  -8 -16   10.30   19.90
  -7  -8  16    6.00   13.40
  -7   8 -16    9.20   14.30
   7  -8 -16   15.60   15.10
  -7  -8  16   14.00   15.20
  -7  -8 -16   24.20   15.70
   7   8 -16   10.90   13.80
  -7  -8 -16    5.30   19.20
  -7   8  16   20.50   15.10
  -7   8 -16    2.60   11.00
  -1   9 -16  202.88   13.40
  -1  -9 -16  203.98   14.90
   1   9 -16  209.68   12.90
  -1   9 -16  203.38   12.20
   1  -9 -16  203.58   13.00
  -1  -9 -16  200.88   10.30
  -1  -9  16  184.88   12.40
  -1   9  16  206.08   14.70
  -2   9 -16   50.99   11.10
  -2   9 -16   55.19   11.80
  -2  -9 -16   48.00   15.10
  -2   9  16   55.59   16.60
  -2   9  16   45.10   12.60
  -2   9 -16   48.50   10.70
   2   9 -16   40.90   12.50
   2  -9 -16   55.39   13.20
  -2  -9 -16   42.40   11.20
  -2  -9  16   39.90   12.90
  -3  -9 -16   22.20   12.00
  -3   9  16   25.80   15.90
  -3   9 -16   35.80   13.30
  -3  -9 -16   25.30   16.90
   3   9 -16   27.80   12.40
  -3   9  16   34.80   12.00
  -3   9 -16   29.60   10.20
   3  -9 -16   20.00   13.30
  -3  -9 -16   27.20   12.50
  -3   9 -16   22.00   11.80
  -3  -9  16   28.60   13.60
  -4   9  16   50.79   15.80
   4   9 -16   46.40   14.80
  -4  -9 -16   35.00   14.00
  -4   9 -16   41.50   14.40
  -4  -9 -16   34.00   17.70
   4  -9 -16   31.00   13.70
  -4  -9 -16   38.20   13.50
  -4   9  16   39.90   13.10
  -4  -9  16   35.40   14.50
  -4   9 -16   25.40   10.00
  -5   9 -16  255.57   15.90
  -5  -9 -16  243.08   17.10
   5  -9 -16  229.88   12.50
  -5  -9 -16  236.88   21.70
  -5  -9 -16  257.97   15.60
  -5  -9  16  249.38   13.10
  -5   9  16  224.18   12.90
  -5   9 -16  237.08   12.70
  -5   9  16  239.98   19.40
   5   9 -16  258.07   16.00
  -6   9 -16  101.79   13.20
   6  -9 -16   84.49   16.80
  -6  -9 -16  103.19   15.70
  -6  -9  16  105.69   13.20
  -6  -9 -16  103.49   20.50
  -6  -9 -16   81.49   23.60
   6   9 -16  108.29   13.70
  -6   9  16   96.59   13.30
  -6   9 -16  101.09   11.30
  -6   9  16  104.79   15.90
  -7  -9  16   -2.50   13.50
   7  -9 -16   10.50   15.10
  -7   9 -16    8.80   18.20
  -7  -9 -16   11.20   15.90
   7   9 -16    0.40   14.10
  -7  -9 -16    1.70   27.80
  -7   9  16   -4.30   13.90
  -7   9 -16    3.30    9.30
  -7   9  16   -2.80   20.00
  -7  -9 -16    2.70   23.30
   0  10 -16  238.88   12.80
   0  10  16  241.78   16.30
   0  10 -16  236.78   12.40
   0 -10 -16  260.87   13.60
  -1  10 -16   -2.50   12.50
   1  10 -16    7.20   12.00
  -1  10 -16    3.40   11.80
   1 -10 -16    7.50   13.70
  -1 -10 -16   10.80   10.10
  -1 -10 -16    6.00   12.50
  -1 -10  16    5.10   14.10
  -1  10  16    9.60   13.80
  -2  10 -16   15.80    9.60
  -2 -10 -16   18.70   15.30
  -2  10 -16   15.00   13.20
  -2  10  16   29.50   13.00
  -2  10 -16   22.30   12.70
   2 -10 -16   19.70   12.90
   2  10 -16   25.60   12.80
  -2 -10 -16   17.10   13.20
  -2 -10  16   19.40   13.10
  -2  10  16   17.30   16.50
  -3 -10 -16   38.10   15.00
  -3 -10 -16   45.90   18.10
  -3  10  16   49.40   18.80
  -3  10 -16   42.00   14.80
  -3  10 -16   32.30   10.40
   3  10 -16   40.80   12.50
  -3  10  16   42.70   12.00
  -3  10 -16   41.80   10.60
   3 -10 -16   37.70   13.40
  -3 -10 -16   34.80   12.60
  -3 -10  16   43.80   13.40
  -4  10  16   81.49   19.70
   4  10 -16   76.09   15.00
  -4 -10 -16   69.09   18.70
  -4  10 -16   83.99   12.50
  -4 -10 -16   80.59   16.10
   4 -10 -16   90.79   14.20
  -4  10  16   80.29   12.40
  -4  10 -16   72.09   10.80
  -4 -10  16   86.19   13.10
  -4 -10 -16   70.59   14.20
  -5 -10 -16   15.50   24.00
  -5  10 -16   31.30   16.50
   5 -10 -16   19.70   12.10
  -5 -10 -16   19.00   22.50
  -5 -10 -16   18.70   15.00
  -5 -10  16   15.80   12.50
  -5  10  16   22.80   12.70
  -5  10 -16   29.50   10.90
   5  10 -16   21.50   12.90
  -5  10  16   17.90   16.20
  -6  10 -16   27.60   14.40
   6 -10 -16   20.60   16.50
  -6 -10 -16   12.30   12.70
   6  10 -16   12.10   13.40
  -6  10  16    7.10   15.30
  -6  10 -16   11.00   11.50
  -6  10  16   28.10   20.20
  -6 -10  16   17.70   14.90
   7 -10 -16   12.20   18.70
   7  10 -16    1.10   16.80
  -7 -10 -16    4.30   16.30
  -7  10  16   -1.40   14.90
  -7  10 -16   14.90   12.20
   1  11 -16    5.20   11.40
   1  11 -16    6.70   14.30
  -1  11 -16    8.10   12.60
  -1  11  16   11.30   15.90
  -1  11 -16    8.30   12.00
   1 -11 -16   -2.10   12.40
  -1 -11 -16   10.40   15.30
  -1 -11 -16   -3.70   12.10
  -1 -11  16   13.70   12.30
  -2  11 -16   83.19   14.00
  -2  11  16   83.89   13.50
  -2  11  16   87.49   16.20
  -2  11 -16   90.49   11.80
   2 -11 -16   84.99   13.30
   2  11 -16   80.19   12.90
  -2  11 -16   82.09   10.80
  -2 -11 -16   82.39   13.80
  -2 -11 -16   75.79   16.10
  -2 -11  16   74.29   13.60
  -3 -11 -16   38.00   16.80
  -3  11 -16   57.59   14.80
  -3  11  16   28.40   18.30
  -3  11 -16   30.30   12.70
   3  11 -16   37.90   15.00
   3 -11 -16   43.10   13.30
  -3  11 -16   41.60   11.10
  -3 -11 -16   33.60   13.20
  -3 -11  16   47.70   13.50
  -3  11  16   38.30   12.60
  -3 -11 -16   33.60   18.70
   4 -11 -16  188.78   15.00
  -4  11  16  203.78   21.30
   4  11 -16  182.38   15.80
  -4  11 -16  192.58   16.40
  -4 -11  16  192.78   13.70
  -4  11 -16  187.08   11.60
  -4  11  16  192.08   13.70
  -4  11 -16  171.38   11.70
  -4 -11 -16  179.18   15.00
  -5 -11  16   49.40   13.10
  -5  11  16   53.79   13.20
  -5  11 -16   63.39   17.00
   5 -11 -16   78.59   15.50
  -5 -11 -16   48.40   15.10
  -5  11 -16   54.49   11.60
   5  11 -16   48.10   13.80
  -5  11  16   69.09   20.40
   6 -11 -16   98.69   17.20
  -6  11 -16   99.59   15.40
  -6 -11 -16   65.49   16.60
  -6 -11  16   74.59   14.20
   6  11 -16   94.79   17.40
  -6  11  16   58.99   15.20
  -6  11 -16   64.99   12.70
  -6  11  16   99.59   17.30
   0  12 -16   54.59   12.80
   0  12  16   60.79   15.00
   0  12 -16   75.29   12.90
   0 -12 -16   66.59   15.90
   1  12 -16  113.09   13.50
  -1  12 -16  114.49   13.10
   1  12 -16  101.79   12.60
  -1  12 -16   90.59   13.00
  -1  12  16  121.49   14.10
   1 -12 -16   97.29   13.30
  -1 -12 -16   94.99   16.40
  -1 -12 -16  103.99   11.30
  -1 -12  16   98.29   13.60
   2  12 -16  149.69   12.60
  -2  12 -16  162.58   14.50
  -2  12  16  197.38   14.50
  -2  12 -16  185.38   12.90
   2 -12 -16  174.78   13.70
  -2  12  16  159.48   16.50
  -2 -12 -16  139.59   19.70
   2  12 -16  164.18   16.20
  -2  12 -16  171.48   11.10
  -2 -12 -16  165.58   12.80
  -2 -12  16  170.78   14.40
  -3  12 -16   30.90   14.70
  -3  12  16    2.60   17.60
   3  12 -16   19.20   13.40
   3 -12 -16    7.40   13.60
  -3  12  16    5.20   13.70
  -3  12 -16    5.80   10.10
  -3 -12 -16    9.30   13.30
  -3 -12  16   16.30   13.60
  -3  12 -16   17.60   11.70
   4  12 -16   12.10   15.20
  -4  12  16    4.70   19.80
  -4  12  16    6.50   13.70
  -4  12 -16    7.30   16.70
   4 -12 -16    3.70   14.20
  -4  12 -16   13.30   11.30
  -4  12 -16   11.90   11.40
  -4 -12 -16    3.20   14.30
  -4 -12  16    8.80   13.20
  -5  12  16   38.10   21.10
  -5  12 -16   28.10   12.40
  -5  12 -16   28.80   14.90
   5 -12 -16   30.00   15.30
  -5  12  16   42.80   14.50
  -5 -12 -16   32.30   15.40
  -5 -12  16   35.80   13.70
   5  12 -16   40.30   17.80
   6 -12 -16    7.20   17.50
  -6  12 -16   -2.90   16.40
   6  12 -16    4.50   17.00
  -6  12 -16   18.00   12.60
   1  13 -16   28.40   12.60
  -1  13 -16   28.00   13.50
  -1  13  16   38.80   16.90
   1 -13 -16   39.10   14.90
  -1 -13 -16   35.40   16.00
  -1  13 -16   38.70   13.30
  -1 -13 -16   33.60   13.50
  -1 -13  16   36.70   14.10
   1  13 -16   26.00   16.60
   2  13 -16   43.20   14.20
  -2 -13 -16   39.50   25.10
  -2  13 -16   46.50   14.00
  -2 -13 -16   35.80   25.70
   2 -13 -16   50.69   13.10
  -2  13 -16   44.90   12.40
  -2  13 -16   38.60   13.10
   2  13 -16   37.80   15.90
  -2  13  16   43.60   15.70
  -2 -13 -16   37.60   12.30
  -2 -13  16   33.00   14.50
   3  13 -16  144.69   15.30
   3  13 -16  171.78   16.90
  -3  13 -16  180.58   15.80
  -3  13  16  194.38   19.00
  -3  13 -16  195.88   14.00
   3 -13 -16  189.18   15.10
  -3  13  16  178.38   15.40
  -3  13 -16  197.68   15.10
  -3 -13 -16  169.78   14.30
  -3 -13  16  200.68   15.20
   4  13 -16  184.08   17.40
   4  13 -16  169.68   16.10
  -4  13  16  226.38   15.50
  -4  13  16  235.78   21.50
  -4  13 -16  253.47   17.50
   4 -13 -16  230.98   16.30
  -4  13 -16  210.68   13.50
  -4 -13 -16  182.28   16.30
  -4 -13  16  203.08   14.30
  -4  13 -16  212.68   15.50
  -5  13  16   22.60   22.20
  -5  13 -16    2.70   13.00
   5 -13 -16    9.70   15.80
  -5  13 -16   15.80   19.50
  -5  13  16   -5.60   14.80
  -5 -13 -16    0.60   15.80
  -5 -13  16   -5.70   13.90
   5  13 -16    1.30   18.20
   0  14 -16  184.48   14.50
   0  14 -16  199.98   17.10
   0 -14 -16  168.98   17.80
   1  14 -16   76.39   15.40
  -1  14 -16   87.59   14.50
  -1 -14 -16   78.79   20.90
   1 -14 -16   77.39   13.60
  -1  14  16   90.09   17.40
  -1  14 -16   89.59   14.10
   1  14 -16  101.29   17.50
  -1 -14 -16   93.59   12.60
  -1 -14  16   95.89   15.20
   2  14 -16    7.20   14.80
  -2  14 -16   15.90   14.70
  -2  14 -16   12.70   13.80
   2 -14 -16   16.20   16.00
   2  14 -16    8.80   16.90
  -2  14  16   11.20   16.20
  -2 -14 -16   27.60   13.30
  -2 -14  16   12.60   14.70
   3  14 -16   46.80   15.50
  -3  14 -16   87.39   14.60
   3  14 -16   60.19   17.00
  -3  14  16   90.89   15.90
  -3  14 -16   85.09   16.30
   3 -14 -16   64.89   14.80
  -3  14  16   96.79   18.40
  -3  14 -16   76.99   13.60
  -3 -14 -16   52.99   15.00
  -3 -14  16   86.09   14.90
   4  14 -16   27.50   17.60
  -4  14  16   35.10   21.20
   4 -14 -16   33.80   15.90
  -4  14 -16   60.39   15.20
  -4  14 -16   50.69   17.80
  -4  14  16   50.39   15.70
  -4  14 -16   45.40   13.80
  -4 -14 -16   36.10   15.90
  -4 -14  16   54.09   14.50
   4  14 -16   35.00   18.90
   1  15 -16   83.19   15.80
   1 -15 -16   88.19   16.10
  -1  15 -16   56.79   15.30
  -1  15  16   73.29   18.40
  -1  15 -16  115.39   17.40
   1  15 -16   86.69   16.10
  -1 -15 -16   97.29   14.10
  -1 -15  16  100.49   15.90
  -2  15  16   91.49   19.50
  -2  15 -16   72.19   14.90
   2  15 -16   37.20   16.50
   2 -15 -16   92.69   16.60
  -2  15 -16   84.49   15.50
   2  15 -16   58.39   18.20
  -2 -15 -16   79.29   14.40
  -2 -15  16   75.19   15.50
   3  15 -16    4.70   19.10
   3  15 -16    5.50   17.50
   3 -15 -16    6.40   15.10
  -3  15 -16    9.30   16.40
  -3  15  16    0.40   16.40
  -3  15 -16    8.60   14.20
  -3  15  16    9.60   19.00
  -3  15 -16   13.50   15.00
  -3 -15 -16    4.30   15.40
  -3 -15  16    4.90   14.50
   0  16 -16   10.80   18.60
   0 -16 -16   10.10   24.80
   0  16 -16   12.70   17.10
  -1  16  16   78.09   21.10
   1 -16 -16   68.39   18.70
   1  16 -16   35.00   17.40
  -1  16 -16   39.70   16.10
  -1  16 -16   37.80   16.60
   1  16 -16   67.99   19.30
  -1 -16 -16   74.69   14.50
  -1  -1  17  195.38   11.50
  -1  -1 -17  182.28   14.00
  -1   1 -17  178.98   10.80
   1  -1 -17  192.78   11.80
   1   1 -17  196.38   11.50
  -1   1  17  175.08   12.00
  -2   1 -17   32.20   12.00
  -2   1  17   34.70   11.70
   2  -1 -17   22.90   13.70
   2   1 -17   39.00   10.20
  -2  -1 -17   38.40   10.60
  -2  -1 -17   36.60   22.10
  -2  -1  17   43.50   11.10
  -2   1 -17   37.80   19.60
  -3  -1  17  160.28   11.20
   3  -1 -17  154.98   11.80
  -3  -1 -17  153.88   13.80
   3   1 -17  158.68   11.30
  -3   1  17  155.98   11.30
  -3   1 -17  145.09   13.40
  -3   1  17  165.68   14.50
  -3   1 -17  160.48   12.00
   4  -1 -17   95.19   11.30
  -4  -1 -17   89.69   10.90
   4   1 -17   89.99   13.00
  -4   1 -17  104.09   11.10
  -4   1  17  106.69   13.20
  -4   1 -17   89.69   13.10
  -4  -1 -17   96.79   14.00
  -4  -1  17   91.19   12.30
  -5   1 -17    1.60    9.40
  -5  -1 -17    3.00   11.60
  -5   1  17    8.70   12.60
  -5  -1 -17   10.50   15.00
  -5  -1  17    5.70   10.00
   5  -1 -17   -6.10   13.50
  -5   1 -17   11.80   14.10
   5   1 -17   15.10   13.00
  -6  -1 -17  156.58   13.90
  -6   1  17  150.18   13.10
  -6   1 -17  161.08   10.30
  -6  -1 -17  167.78   10.50
  -6  -1  17  160.68   13.20
   6  -1 -17  145.49   12.40
   6   1 -17  161.88   13.70
  -6   1 -17  155.08   13.20
  -7  -1 -17  160.68   18.10
  -7   1  17  130.59   14.10
  -7   1 -17  137.39   13.30
  -7  -1 -17  129.89   13.50
  -7  -1  17  106.49   13.70
   7  -1 -17  115.99   13.20
   7   1 -17  128.49   12.60
  -8  -1 -17   35.70   16.20
  -8   1  17   41.60   14.70
  -8  -1  17   34.10   14.20
  -8   1 -17   49.70   14.90
  -8  -1 -17   40.90   14.70
   8  -1 -17   26.10   16.40
   8   1 -17   31.80   12.30
   0   2 -17   10.70    9.90
   0   2  17   13.80   12.50
   0  -2 -17   19.00   11.80
  -1  -2 -17   44.20   14.20
   1  -2 -17   48.20   11.60
  -1  -2  17   49.00   10.50
  -1   2  17   51.59   11.30
  -1   2 -17   41.70   11.90
   1   2 -17   58.19   12.70
  -2  -2  17  188.18   13.70
  -2   2 -17  169.08   12.40
   2  -2 -17  188.28   15.00
  -2  -2 -17  180.78   13.90
   2   2 -17  182.88   10.80
  -2  -2 -17  186.28   19.20
  -2   2 -17  189.88   18.70
  -2   2  17  188.48   15.40
  -3   2 -17   54.89   11.70
  -3   2 -17   47.40   12.80
   3  -2 -17   75.39   14.10
   3   2 -17   63.79   10.50
  -3  -2  17   61.19   12.50
  -3  -2  17   60.69   20.50
  -3   2  17   63.99   11.70
  -3   2  17   58.09   13.10
  -3   2 -17   49.10   10.60
  -3  -2 -17   65.89   13.80
  -4  -2 -17    9.60   10.90
  -4   2 -17   -8.70   11.20
   4   2 -17    3.30    9.90
  -4   2  17   -0.20   13.40
  -4  -2 -17    1.20   13.90
  -4  -2  17    3.80    9.40
  -4   2  17    4.20   11.70
   4  -2 -17    4.60   13.80
  -4   2 -17   -5.40   10.60
  -5  -2 -17   31.00   10.70
  -5   2 -17   26.50   11.80
  -5   2  17   35.90   13.30
  -5   2 -17   29.20   14.30
  -5  -2  17   28.90   11.70
   5  -2 -17   37.80   13.90
  -5  -2 -17   31.30   14.80
   5   2 -17   22.90   12.80
  -6  -2 -17   52.19   16.30
  -6   2  17   39.80   11.30
  -6   2 -17   33.70   12.50
  -6  -2 -17   33.50   12.20
  -6  -2  17   39.70   12.00
   6  -2 -17   24.20   14.50
   6   2 -17   27.80   13.50
  -7   2  17   38.50   11.80
  -7   2 -17   40.70   11.70
  -7  -2 -17   48.10   13.10
  -7  -2  17   40.70   10.60
   7  -2 -17   30.40   12.70
   7   2 -17   40.00   14.00
  -7  -2 -17   39.00   17.20
  -8   2  17   22.50   12.50
  -8  -2 -17   46.90   20.10
  -8   2 -17   29.40   15.30
  -8  -2  17   19.20   14.00
  -8  -2 -17   31.60   14.60
   8  -2 -17   33.50   17.00
   8   2 -17   23.70   15.60
   1  -3 -17   75.29   15.20
  -1   3  17   74.39   14.30
  -1   3 -17   71.69    9.90
   1   3 -17   82.69   10.00
  -1  -3 -17   79.99   14.60
   2  -3 -17    7.80   15.00
  -2  -3 -17   -2.00   11.70
  -2   3 -17    3.40    9.60
  -2   3  17    3.40   23.80
   2   3 -17  -10.70   11.80
  -2   3 -17    2.90   14.30
  -2  -3 -17    8.10   15.20
  -2   3  17   11.30   12.90
  -2  -3  17    3.30   19.20
  -2  -3  17    4.80   10.10
  -3   3 -17  125.19   11.80
   3  -3 -17  127.19   15.10
  -3   3 -17  123.09   10.40
   3   3 -17  131.99   12.70
  -3   3  17  134.49   15.00
  -3  -3 -17  124.59   16.80
  -3  -3  17  134.19   18.60
  -3  -3 -17  138.39   14.10
  -3  -3  17  126.49   10.30
  -3   3  17  133.29   13.70
  -3   3 -17  121.39   11.20
  -4  -3 -17  100.09   11.60
  -4  -3 -17  104.09   11.40
  -4   3 -17  101.69   12.10
   4   3 -17   94.69   10.10
  -4  -3  17  116.29    9.80
  -4   3  17  109.89   12.00
  -4   3 -17   95.99   13.30
  -4   3  17  107.79   12.50
   4  -3 -17   92.69   15.10
  -4   3 -17  101.99    9.60
  -5   3  17  136.39   14.60
  -5  -3 -17  137.09   11.50
  -5   3 -17  146.69   12.10
  -5  -3 -17  139.79   14.80
   5  -3 -17  115.99   14.90
  -5  -3  17  131.09   12.30
  -5   3  17  123.59   12.10
   5   3 -17  114.39   13.00
  -5   3 -17  123.19   10.30
  -6   3  17   -2.40   14.20
  -6   3 -17    2.90   10.40
  -6  -3 -17   -1.10   12.00
   6  -3 -17    2.60   12.60
  -6  -3  17   10.00   12.10
   6   3 -17    7.40   10.60
  -6  -3 -17    1.40   16.10
  -6   3  17    1.50   11.20
  -7   3  17   78.09   14.40
  -7  -3 -17   96.29   17.50
  -7   3 -17  102.39   14.30
  -7  -3 -17   83.19   13.40
   7  -3 -17   84.39   15.50
  -7  -3  17   78.69   13.20
   7   3 -17   90.69   11.80
   8  -3 -17   53.89   17.80
  -8   3  17   72.29   16.50
  -8  -3 -17   58.89   19.70
  -8   3 -17   85.09   15.70
  -8  -3 -17   69.99   15.10
   8   3 -17   53.09   15.20
  -8  -3  17   79.69   14.30
   0   4 -17  913.61   15.00
   0  -4 -17  977.80   18.10
   0   4  17  914.71   15.60
  -1   4  17  141.49   11.80
   1  -4 -17  149.88   14.70
  -1  -4 -17  142.29   15.20
  -1   4 -17  135.79   12.30
   1   4 -17  145.99   12.50
  -2  -4 -17   81.49   14.50
   2  -4 -17   88.09   12.60
  -2   4  17   76.79   18.90
  -2   4 -17   68.19   12.00
   2   4 -17   85.99   10.40
  -2   4 -17   80.99   12.50
  -2  -4 -17  102.39   13.30
  -2   4  17   77.39   16.90
  -2  -4  17   80.49   18.10
  -2  -4  17   80.49   12.90
   3  -4 -17   -7.60   11.90
  -3   4 -17    2.20   11.60
   3   4 -17   14.10   12.10
  -3   4  17    6.70   13.00
  -3  -4 -17    1.70   13.80
  -3   4 -17    8.50    9.60
  -3  -4  17    0.30   11.50
  -3  -4 -17    0.00   13.90
  -3  -4  17    9.10   16.90
  -3   4  17    3.80   13.20
  -3   4 -17    2.60   10.70
  -4  -4 -17  198.28   11.30
  -4   4 -17  204.98   12.50
   4   4 -17  192.28   10.80
  -4   4  17  183.18   13.10
  -4  -4  17  208.18   15.00
  -4  -4  17  212.58   12.40
  -4   4 -17  197.78   13.50
  -4  -4 -17  210.18   14.40
  -4   4  17  198.08   12.40
   4  -4 -17  208.48   13.20
  -4   4 -17  198.98   10.30
  -5   4  17  195.18   12.70
  -5  -4 -17  204.58   15.50
  -5  -4 -17  198.08   12.00
  -5   4 -17  198.88   11.00
  -5  -4  17  191.08   10.40
   5  -4 -17  200.88   16.30
  -5   4  17  184.18   12.10
  -5   4 -17  190.38   10.60
   5   4 -17  191.88   11.10
  -6  -4  17   29.40   12.10
  -6   4 -17   24.50   10.70
  -6  -4 -17   26.30   11.70
  -6  -4 -17   25.40   15.50
   6  -4 -17    9.80   13.10
   6   4 -17    2.10   13.00
  -6   4  17   15.00   10.60
  -6   4 -17   18.50   10.50
  -7   4  17   64.39   16.00
  -7   4 -17   71.99   11.90
  -7  -4 -17   77.79   15.50
   7  -4 -17   72.39   14.10
  -7  -4 -17   75.39   17.50
   7   4 -17   61.19   13.80
  -7  -4  17   58.59   10.80
  -7   4  17   56.99   12.00
  -7   4 -17   37.80   10.30
  -8   4  17    5.50   16.80
  -8   4 -17   12.10   16.10
   8  -4 -17    8.60   14.90
  -8  -4 -17   -2.50   16.90
   8   4 -17    3.80   15.20
  -8  -4 -17   10.80   21.10
  -8  -4  17    5.90   14.10
  -8   4  17   16.70   13.50
  -8   4 -17   -2.20   11.40
   1   5 -17   74.89   12.00
   1  -5 -17   70.59   14.20
  -1   5  17   55.09   14.30
  -1  -5 -17   65.39   14.70
  -1  -5 -17   68.39   12.30
  -1   5 -17   62.49   12.00
   2  -5 -17   73.39   15.00
  -2   5  17   79.29   18.80
  -2   5 -17   77.59   12.00
   2   5 -17   68.69   12.40
  -2   5  17   65.89   17.60
  -2  -5 -17   61.19   13.20
  -2  -5  17   69.79   16.40
  -2  -5 -17   80.49   14.50
  -2   5 -17   56.19   11.90
  -3   5 -17   70.59   12.00
  -3  -5 -17   65.89   14.20
  -3   5  17   57.29   13.90
   3   5 -17   65.59   11.80
  -3  -5 -17   64.69   14.00
  -3  -5  17   58.09   17.70
  -3   5  17   62.79   14.00
  -3   5 -17   63.59   10.20
  -3  -5  17   61.09   11.90
  -3   5 -17   60.09    9.80
   3  -5 -17   75.79   14.20
  -4  -5 -17   41.60   10.10
  -4   5 -17   52.49   10.30
  -4   5  17   41.60   13.30
   4   5 -17   47.60   12.10
  -4  -5  17   59.39   11.70
  -4  -5 -17   47.90   16.60
  -4  -5 -17   52.39   16.30
  -4   5 -17   36.30   10.40
  -4   5  17   56.49   12.00
   4  -5 -17   39.30   12.10
  -4   5 -17   54.09   10.20
  -4  -5  17   51.19   14.20
  -5   5  17  353.36   14.30
  -5  -5 -17  369.96   12.50
  -5   5 -17  368.76   12.20
  -5  -5  17  363.06   15.60
  -5  -5  17  340.87   13.10
  -5  -5 -17  377.26   16.00
   5  -5 -17  367.56   14.20
  -5   5  17  352.16   13.60
  -5   5 -17  341.97   10.30
   5   5 -17  348.97   13.70
  -6   5  17  117.69   16.30
  -6  -5 -17  131.69   18.60
  -6   5 -17  133.29   11.20
  -6  -5  17  122.09   10.70
  -6  -5 -17  122.89   14.40
   6  -5 -17  124.19   13.90
   6   5 -17  125.89   13.40
  -6   5  17  108.59   13.20
  -6   5 -17   86.79    9.90
  -7  -5  17  101.99   13.40
  -7  -5 -17   90.79   19.40
  -7   5 -17   98.99   12.70
  -7  -5 -17  104.49   15.70
   7  -5 -17   84.89   15.40
   7   5 -17   90.39   14.70
  -7   5  17   78.79   14.70
  -7   5 -17   62.39   10.90
  -8  -5  17   18.10   14.30
  -8  -5 -17   24.50   17.30
   8  -5 -17   13.70   19.00
  -8   5 -17    1.20   16.80
   8   5 -17   19.50   15.40
  -8  -5 -17   21.30   14.90
  -8   5  17   -0.40   14.20
  -8   5 -17   -1.90   11.90
  -8   5  17    9.90   14.40
   0  -6 -17  579.84   16.50
   0   6  17  524.85   12.70
   0   6 -17  529.35   13.50
   1   6 -17   80.79   12.10
  -1   6 -17   77.69   12.30
  -1   6  17   83.29   12.00
   1  -6 -17   77.39   14.10
  -1  -6 -17   91.09   14.50
  -1  -6 -17   82.19   11.30
  -1  -6  17   76.09   12.70
  -2   6 -17  311.37   13.30
   2  -6 -17  329.07   13.90
  -2   6  17  323.67   17.20
  -2   6  17  305.07   18.60
  -2   6 -17  325.47   10.60
   2   6 -17  318.87   11.20
  -2  -6 -17  343.97   15.60
  -2  -6 -17  316.87   13.40
  -2   6 -17  332.17   13.60
  -2  -6  17  315.87   17.40
  -3   6 -17  318.07   11.80
  -3   6  17  333.37   16.70
   3   6 -17  311.67   11.70
  -3  -6 -17  304.57   15.10
  -3   6  17  343.17   14.70
  -3  -6  17  323.77   19.40
  -3   6 -17  324.17   12.30
   3  -6 -17  328.37   15.10
  -3   6 -17  327.77   13.20
  -3  -6 -17  363.96   17.90
  -4  -6 -17  167.68   11.10
  -4   6  17  169.48   14.00
  -4   6 -17  152.28   11.00
  -4  -6 -17  172.18   15.40
   4   6 -17  181.28   12.20
  -4  -6  17  160.98   12.30
  -4   6 -17  144.19   13.00
  -4  -6 -17  145.39   15.60
  -4  -6  17  153.18   13.60
  -4   6  17  165.58   13.50
   4  -6 -17  165.88   14.60
  -4   6 -17  150.08   10.90
  -5   6  17   34.00   16.40
  -5  -6 -17   25.50   16.70
  -5  -6 -17   27.80   11.10
  -5   6 -17   18.50   13.40
  -5  -6  17   26.20   11.80
  -5  -6 -17   31.90   17.00
  -5  -6  17   33.50   14.10
   5  -6 -17   31.90   15.40
  -5   6  17   37.60   12.30
  -5   6 -17   30.20   10.60
   5   6 -17   36.10   12.90
  -6   6 -17    5.40   14.40
  -6  -6 -17   13.10   12.40
  -6  -6  17    1.20   12.80
   6  -6 -17   16.10   17.20
  -6  -6 -17    6.60   15.10
   6   6 -17   18.50   13.60
  -6   6  17    7.60   11.60
  -6   6 -17   10.80    9.60
  -6  -6  17   10.10   12.10
  -6   6  17   11.40   13.80
  -7   6 -17   53.79   15.90
  -7  -6 -17   50.19   15.70
  -7  -6  17   44.20   13.70
   7  -6 -17   70.39   18.40
  -7  -6  17   45.90   13.20
   7   6 -17   46.70   14.40
  -7  -6 -17   48.40   16.40
  -7   6  17   39.50   14.90
  -7   6 -17   31.40   10.60
  -7   6  17   53.79   14.30
   8  -6 -17   20.20   16.80
  -8   6 -17   36.50   14.60
  -8  -6  17   18.80   14.40
  -8  -6 -17   13.80   17.60
  -8  -6 -17    5.70   20.10
  -8   6 -17    1.20   12.20
   1   7 -17   -1.80    9.70
  -1   7 -17    8.30    8.90
   1  -7 -17   13.80   13.00
  -1   7  17    1.10   15.00
  -1  -7 -17    1.10   13.20
  -1  -7 -17    6.00   10.20
  -1  -7  17    1.60   13.40
  -2   7 -17  112.89   13.10
  -2  -7 -17  117.99   14.50
  -2   7  17  125.29   15.80
  -2   7 -17  111.19   12.30
  -2   7  17  102.09   17.90
   2   7 -17  122.79   12.30
  -2  -7 -17  121.09   12.50
  -2   7 -17  119.69   12.20
  -2  -7  17   99.29   14.80
   2  -7 -17  111.99   11.70
  -3   7 -17  192.18   13.50
  -3   7  17  214.08   21.60
   3   7 -17  191.18   13.00
  -3   7  17  223.98   14.70
  -3   7 -17  209.98   12.10
  -3  -7 -17  196.08   15.40
  -3  -7 -17  218.28   14.90
  -3  -7  17  203.48   17.30
   3  -7 -17  214.58   12.10
  -3   7 -17  215.38   12.70
  -4  -7 -17   60.69   12.70
  -4   7  17   60.99   18.60
  -4   7 -17   55.79   11.10
   4   7 -17   58.29   12.50
  -4   7 -17   75.19   13.00
  -4  -7 -17   61.59   15.50
  -4  -7  17   65.39   12.70
  -4   7  17   62.19   11.40
   4  -7 -17   55.19   14.70
  -4   7 -17   63.39   11.00
  -4  -7 -17   62.39   17.10
  -5   7  17  109.49   14.90
  -5  -7 -17  111.79   17.00
  -5  -7 -17  119.99   13.70
  -5   7 -17  115.69   14.80
  -5  -7 -17  110.89   14.90
  -5  -7  17   95.99   14.80
   5  -7 -17  110.19   13.20
  -5   7  17  111.69   13.40
  -5   7 -17  101.39    9.90
  -5  -7  17  106.19   12.40
   5   7 -17  109.29   13.10
  -6  -7 -17  176.58   16.60
  -6  -7 -17  162.58   18.10
  -6   7 -17  189.38   13.20
  -6  -7 -17  185.98   14.90
  -6  -7  17  163.88   13.40
  -6  -7  17  178.38   13.10
   6   7 -17  180.48   14.20
  -6   7  17  132.99   13.10
  -6   7 -17  158.28   10.90
  -6   7  17  176.38   18.00
   6  -7 -17  186.68   17.20
  -7  -7  17  150.58   14.30
  -7  -7 -17  184.38   19.60
  -7   7 -17  194.18   14.50
   7  -7 -17  153.78   16.50
  -7  -7  17  122.79   16.50
  -7  -7 -17  153.68   17.20
   7   7 -17  155.98   15.40
  -7  -7 -17  122.39   20.00
  -7   7  17  136.59   14.30
  -7   7 -17  125.39   12.10
  -7   7  17  149.88   15.90
   0  -8 -17  178.28   13.30
   0   8  17  184.48   13.20
   0   8 -17  169.18   13.20
  -1   8 -17  309.27   13.30
  -1   8 -17  324.37   11.00
   1   8 -17  327.97   13.20
  -1   8  17  315.87   15.40
  -1  -8 -17  334.47   16.10
  -1  -8 -17  312.17   12.20
  -1  -8  17  322.87   15.10
   1  -8 -17  331.27   14.40
  -2   8 -17  607.04   15.00
  -2  -8 -17  598.34   18.50
  -2   8  17  611.94   18.60
  -2   8 -17  615.14   14.80
  -2   8  17  584.54   16.30
   2   8 -17  578.74   14.40
  -2  -8 -17  575.94   14.70
  -2   8 -17  599.94   13.80
  -2  -8  17  562.74   17.50
   2  -8 -17  549.15   14.80
  -3   8 -17   21.30   10.80
  -3   8  17   17.20   20.40
   3   8 -17   11.30   12.40
  -3  -8 -17   11.10   15.80
  -3   8  17   14.80   13.90
  -3  -8 -17    8.40   13.90
  -3  -8  17   18.00   15.90
   3  -8 -17   16.60   13.90
  -3   8 -17   21.30   11.70
  -3   8 -17   16.50   12.00
  -4   8  17    9.40   19.70
  -4  -8 -17    9.60   12.40
   4   8 -17   12.40   12.40
  -4   8 -17    8.00   11.30
  -4   8 -17   15.40   12.80
  -4  -8 -17   15.60   15.40
  -4  -8  17   15.00   14.50
   4  -8 -17    6.20   12.00
  -4  -8 -17   15.80   15.90
  -4   8  17   12.90   13.20
  -4   8 -17    8.70   11.20
  -5   8  17   80.59   15.30
  -5   8 -17  105.89   15.10
  -5  -8 -17   83.29   15.40
  -5  -8 -17   90.39   15.20
   5  -8 -17   97.39   13.00
  -5  -8  17   84.59   14.50
  -5   8  17  107.49   14.00
  -5   8 -17   83.59   10.80
  -5  -8 -17   83.99   17.40
   5   8 -17   95.59   13.50
  -6  -8  17   38.10   13.00
  -6   8 -17   43.70   16.30
  -6  -8 -17   45.40   16.70
   6  -8 -17   43.60   14.20
  -6  -8 -17   26.60   15.60
  -6  -8  17   39.20   12.70
  -6   8  17   42.00   12.70
   6   8 -17   46.80   15.80
  -6   8 -17   34.80   10.60
  -6   8  17   43.70   19.30
  -6  -8 -17   27.00   19.40
  -7  -8 -17   36.50   23.90
  -7  -8  17   21.50   14.40
  -7   8 -17   26.40   17.90
   7  -8 -17   58.69   15.60
  -7  -8 -17   18.80   16.70
  -7  -8  17   11.10   15.90
  -7  -8 -17   39.10   18.90
   7   8 -17   38.70   14.90
  -7   8  17   25.50   16.00
  -7   8 -17   20.30   13.30
  -1   9 -17    6.10   12.80
  -1   9 -17   18.20   11.90
  -1  -9 -17   18.70   13.00
   1   9 -17   16.80   12.50
  -1   9  17   15.60   14.10
   1  -9 -17   10.10   12.70
  -1  -9 -17   11.20    9.90
  -1  -9  17   13.20   14.00
  -2   9 -17    5.60   13.30
  -2  -9 -17    7.10   15.20
  -2   9  17   -2.90   16.00
  -2   9 -17    2.60   11.00
  -2   9  17   10.50   16.50
   2   9 -17   -0.80   12.30
   2  -9 -17    7.10   12.90
  -2  -9 -17    0.30   10.70
  -2   9 -17    3.70   12.40
  -2  -9  17    2.90   14.80
  -3  -9 -17  119.49   12.70
  -3   9 -17  138.19   13.90
  -3   9  17  129.59   19.20
  -3  -9 -17  141.19   15.80
   3   9 -17  135.79   15.00
  -3   9  17  139.59   13.00
  -3   9 -17  133.49   12.40
   3  -9 -17  129.69   13.60
  -3  -9 -17  137.09   14.70
  -3  -9  17  120.49   16.20
  -3   9 -17  155.88   13.50
  -4   9  17  213.28   20.50
   4   9 -17  212.38   13.60
  -4  -9 -17  201.38   15.60
  -4   9 -17  219.38   15.40
  -4   9 -17  235.48   13.80
  -4  -9 -17  211.98   17.90
   4  -9 -17  222.88   14.90
  -4   9  17  219.18   12.90
  -4  -9 -17  190.38   14.70
  -4   9 -17  207.68   11.20
  -4  -9  17  218.08   13.50
  -5   9  17  124.99   16.10
  -5   9 -17  158.48   16.00
  -5  -9 -17  147.49   16.20
  -5  -9 -17  121.49   20.00
   5  -9 -17  131.79   13.30
  -5  -9 -17  136.59   17.60
  -5  -9  17  114.29   13.30
  -5   9  17  125.69   13.00
  -5   9 -17  132.79   12.80
   5   9 -17  137.99   15.40
  -6   9 -17   16.30   13.80
   6  -9 -17   41.90   16.80
  -6  -9 -17   15.20   18.70
  -6  -9 -17   20.00   15.60
  -6  -9  17   17.00   13.30
  -6  -9 -17   15.00   21.90
  -6   9  17    8.70   13.50
   6   9 -17   12.50   13.20
  -6   9 -17   10.20   11.30
  -6   9  17   22.00   19.40
   7  -9 -17   90.89   20.20
  -7   9 -17   96.59   19.00
  -7  -9 -17   40.50   17.50
  -7  -9  17    0.30   14.70
   7   9 -17   86.19   17.80
  -7  -9 -17   54.69   28.50
  -7   9  17  -25.80   15.50
  -7   9 -17   84.69   12.70
  -7  -9 -17   87.99   25.70
  -7   9  17   83.19   16.20
   0  10 -17  240.08   13.20
   0  10 -17  240.98   13.20
   0  10  17  259.97   16.30
   0 -10 -17  231.58   13.60
   1  10 -17  129.49   13.10
  -1  10 -17  139.39   12.60
  -1  10 -17  133.79   12.90
  -1  10  17  136.19   14.70
   1 -10 -17  132.09   13.20
  -1 -10 -17  134.89   12.20
  -1 -10 -17  128.09   15.30
  -1 -10  17  128.49   14.90
  -2 -10 -17  103.59   16.70
  -2  10 -17  114.89   13.60
  -2  10  17  120.19   14.70
  -2  10 -17  112.29   11.90
  -2  10  17  117.89   16.30
  -2  10 -17  121.99   12.70
   2  10 -17  115.19   13.70
   2 -10 -17  112.09   13.30
  -2 -10 -17   96.59   11.80
  -2 -10  17   94.49   13.30
  -3 -10 -17   86.29   14.70
  -3 -10 -17   84.09   17.10
  -3  10 -17   91.19   14.20
  -3  10  17   87.59   18.80
   3  10 -17   90.79   13.20
  -3  10  17  105.09   15.60
  -3  10 -17   95.29   12.90
   3 -10 -17   89.49   13.80
  -3  10 -17  104.29   12.50
  -3 -10 -17   90.49   14.60
  -3 -10  17   96.29   16.60
  -4  10  17   54.89   17.20
   4  10 -17   40.30   13.30
  -4 -10 -17   35.60   19.90
  -4 -10 -17   47.90   16.60
  -4  10 -17   32.70   12.60
  -4  10 -17   42.90   12.30
   4 -10 -17   47.50   14.10
  -4  10 -17   34.40   13.20
  -4 -10 -17   42.80   16.20
  -4  10  17   46.90   12.90
  -4 -10  17   43.20   13.50
  -5  10  17   10.10   20.00
  -5 -10 -17    3.70   23.00
  -5  10 -17   19.80   16.90
  -5 -10 -17    6.30   19.00
   5 -10 -17    8.50   12.70
  -5 -10 -17    7.10   14.80
  -5  10  17    6.70   13.20
  -5 -10  17   12.40   15.00
  -5  10 -17    6.40   11.00
   5  10 -17    2.40   12.90
  -6  10 -17    7.70   14.30
   6 -10 -17  -10.70   17.50
  -6 -10 -17   -3.80   16.00
  -6 -10  17    3.20   15.30
  -6  10  17   14.60   14.30
  -6  10 -17   11.80   11.70
   6  10 -17   14.70   15.90
  -6  10  17   -3.70   17.10
   1  11 -17  106.79   12.60
   1  11 -17  109.09   13.50
  -1  11 -17  110.89   12.70
  -1  11  17  100.79   15.00
   1 -11 -17  100.59   13.70
  -1 -11 -17   96.89   14.90
  -1 -11 -17  107.59   10.90
  -1 -11  17  113.69   15.40
  -1  11 -17  127.39   12.60
  -2  11 -17  104.89   11.70
  -2  11 -17  110.89   12.50
  -2  11 -17  108.19   10.60
   2 -11 -17  111.39   13.30
   2  11 -17  101.89   13.60
  -2  11  17  100.69   16.50
  -2 -11 -17  111.19   11.90
  -2 -11 -17   90.19   17.20
  -2 -11  17   97.79   16.20
  -3 -11 -17    7.10   15.70
  -3  11 -17   -8.80   14.00
  -3  11  17   12.00   18.30
   3  11 -17    5.80   15.50
  -3  11 -17   10.50   10.30
  -3  11  17    7.70   13.80
  -3  11 -17   -0.20   11.70
   3 -11 -17    9.40   13.60
  -3 -11 -17   -1.90   13.00
  -3 -11  17   10.20   13.90
  -3 -11 -17    7.40   18.00
   4  11 -17    8.70   15.10
  -4  11  17   13.60   20.70
  -4  11 -17   -3.50   16.20
  -4 -11 -17    6.30   21.90
   4 -11 -17   14.20   14.30
  -4  11  17   12.40   13.60
  -4  11 -17   11.20   11.60
  -4 -11 -17    7.20   14.70
  -4 -11  17    7.60   13.30
  -4  11 -17   13.70   11.00
  -4 -11 -17    4.80   25.30
  -5  11  17  137.69   18.10
  -5  11 -17  163.88   15.30
   5 -11 -17  147.19   16.20
  -5  11  17  112.49   14.70
  -5  11 -17  155.68   12.80
  -5 -11 -17  131.19   16.60
  -5 -11  17  126.49   14.40
   5  11 -17  131.59   14.30
  -6  11  17   92.09   22.40
   6 -11 -17  104.09   18.40
  -6  11 -17  123.59   16.20
  -6 -11 -17   73.39   16.80
  -6 -11  17   14.80   14.80
  -6  11  17   62.79   15.70
   6  11 -17  111.49   17.60
  -6  11 -17   82.29   13.10
   0  12 -17  122.49   13.00
   0  12  17  121.19   16.10
   0  12 -17  119.49   13.30
   0 -12 -17  106.49   15.30
   1  12 -17   39.70   12.30
  -1  12 -17   31.70   12.90
  -1  12  17   35.10   14.40
   1 -12 -17   31.40   15.20
  -1 -12 -17   32.70   16.00
  -1  12 -17   31.50   12.70
  -1 -12 -17   29.00   11.30
   1  12 -17   30.40   13.60
  -1 -12  17   44.00   16.20
   2  12 -17    2.00   12.20
  -2  12 -17    4.30   13.30
  -2  12 -17   16.50   12.50
   2 -12 -17   15.00   13.30
   2  12 -17   16.40   13.50
  -2 -12 -17    6.50   17.50
  -2  12 -17    7.50   12.40
  -2  12  17   11.60   16.30
  -2 -12 -17    4.50   12.00
  -2 -12  17   13.00   16.60
  -3  12 -17   31.70   10.80
  -3  12 -17   34.00   14.50
  -3 -12 -17   23.80   22.60
   3  12 -17   22.30   13.40
  -3  12  17   31.20   18.00
   3 -12 -17   25.70   13.90
  -3  12  17   32.60   14.90
  -3  12 -17   38.30   12.70
  -3 -12 -17   21.10   24.70
  -3 -12 -17   19.50   13.80
  -3 -12  17   30.80   14.60
   4  12 -17   34.20   16.10
  -4  12  17   51.49   20.40
  -4  12 -17   59.69   16.80
  -4  12  17   37.70   14.80
  -4  12 -17   49.99   14.20
   4 -12 -17   43.80   15.30
  -4  12 -17   39.70   12.60
  -4 -12 -17   50.69   15.10
  -4 -12  17   40.50   13.90
  -5  12  17    4.20   18.20
  -5  12 -17   21.10   18.70
   5 -12 -17   12.70   15.90
  -5  12  17   -1.20   15.00
  -5  12 -17   14.10   12.60
  -5 -12 -17   -0.80   16.40
  -5 -12  17   11.30   13.70
   5  12 -17   -4.90   16.10
  -5  12 -17   -2.20   15.30
   1  13 -17   -2.20   12.40
  -1  13 -17    4.10   13.20
   1 -13 -17    0.20   14.50
  -1 -13 -17    3.70   16.10
  -1  13  17   -6.80   14.30
  -1  13 -17    6.20   13.30
   1  13 -17    8.90   13.90
  -1 -13 -17   -2.20   13.40
  -1 -13  17    1.10   16.70
   2  13 -17    7.50   12.50
  -2 -13 -17    1.20   19.30
  -2  13 -17   -1.20   13.70
  -2  13 -17    5.30   13.30
   2 -13 -17   11.00   15.50
  -2 -13 -17    0.40   21.60
   2  13 -17    0.50   16.20
  -2 -13 -17   -5.70   12.80
  -2  13  17   11.90   15.90
  -2 -13  17   13.20   14.60
  -3  13 -17   14.20   13.70
   3  13 -17   20.80   14.80
  -3  13 -17    8.70   15.00
   3  13 -17   15.60   16.40
  -3  13 -17   16.70   15.30
   3 -13 -17   24.00   14.70
  -3  13  17   13.90   17.90
  -3  13  17   17.80   17.80
  -3 -13 -17   20.90   14.10
  -3 -13  17   14.30   16.40
   4  13 -17   23.10   15.50
   4  13 -17   35.60   16.80
  -4  13  17   44.90   20.70
  -4  13 -17   54.29   17.50
   4 -13 -17   66.59   16.10
  -4  13  17   43.50   16.00
  -4  13 -17   55.59   13.50
  -4 -13 -17   29.30   15.50
  -4 -13  17   48.50   14.40
  -4  13 -17   34.10   14.90
  -5  13 -17   -4.00   13.90
  -5 -13 -17   13.90   17.10
  -5  13 -17    1.20   16.30
   0  14 -17   -0.60   13.60
   0  14 -17    2.70   14.40
   0 -14 -17    3.10   17.20
  -1  14  17    7.30   17.70
   1  14 -17    8.20   12.90
  -1  14 -17    1.70   14.00
  -1 -14 -17    3.90   19.50
   1 -14 -17    1.70   16.00
  -1  14 -17    8.40   14.10
   1  14 -17   -4.50   17.10
  -1 -14 -17    3.30   12.60
  -2  14  17   63.99   19.00
   2  14 -17   23.90   13.30
  -2  14 -17   59.99   14.90
  -2  14 -17   49.10   15.20
   2 -14 -17   34.20   14.40
   2  14 -17   54.59   15.00
  -2 -14 -17   47.90   14.10
  -2 -14  17   60.99   15.40
   3  14 -17    8.10   15.50
   3  14 -17   17.70   18.90
  -3  14 -17   10.00   15.90
   3 -14 -17    7.50   15.00
  -3  14  17    6.70   16.40
  -3  14 -17    7.20   14.20
  -3  14  17   13.30   21.10
  -3  14 -17   10.10   14.60
  -3 -14 -17   12.50   15.00
  -3 -14  17   13.70   14.90
   4  14 -17    9.10   18.50
  -4  14  17   15.30   21.60
   4 -14 -17   13.80   16.40
  -4  14 -17   -9.10   17.60
  -4  14 -17   -1.30   12.50
  -4  14  17    4.20   17.30
  -4  14 -17    2.30   14.50
  -4 -14 -17    5.80   16.40
   4  14 -17    9.20   19.40
   1  15 -17    3.60   14.10
  -1  15 -17   -0.60   14.70
   1 -15 -17   10.70   16.40
  -1  15 -17   -3.90   15.00
   1  15 -17   -7.20   18.30
  -1  15  17    5.40   18.00
  -1 -15 -17   -5.40   13.50
  -2  15 -17    7.20   17.60
   2  15 -17    1.70   16.00
   2 -15 -17    5.80   14.80
  -2  15  17   -2.10   19.40
  -2  15 -17    8.20   18.10
   2  15 -17   -2.20   17.90
  -2 -15 -17    2.70   14.30
  -2 -15  17    0.30   16.20
   0   0 -18 1322.47   18.40
  -1   0 -18  556.34   13.00
   1   0 -18  581.94   13.70
  -1   0  18  545.25   13.80
   2   0 -18  570.24   15.90
  -2   0  18  608.14   14.70
  -2   0 -18  540.05   13.20
  -3   0  18  385.16   14.20
  -3   0 -18  364.96   12.50
   3   0 -18  366.56   14.10
  -3   0  18  403.26   20.40
   4   0 -18  228.88   11.50
  -4   0 -18  228.58   11.80
  -4   0  18  215.18   11.10
  -4   0 -18  213.88   14.40
  -5   0 -18   -0.50   11.50
  -5   0 -18    9.30   15.20
  -5   0  18    3.60   10.40
   5   0 -18    8.00   13.20
  -6   0 -18   27.60   16.70
  -6   0 -18   18.20   10.50
  -6   0  18   17.70   12.50
   6   0 -18   16.50   10.90
  -7   0 -18   33.30   11.00
  -7   0  18   16.80   13.90
  -7   0 -18   17.20   15.40
   7   0 -18   25.00   12.00
  -8   0 -18   67.39   21.40
  -8   0  18   68.09   15.40
  -8   0 -18   78.89   15.60
   8   0 -18   67.79   13.50
  -1  -1 -18   37.40   13.40
  -1  -1  18   29.20   13.60
  -1   1  18   24.20   11.80
  -1   1 -18   32.90   12.50
   1  -1 -18   24.40   14.30
   1   1 -18   20.40   13.30
  -2  -1  18    4.20   13.70
  -2   1  18    1.20   12.20
   2  -1 -18   -0.60   11.50
   2   1 -18   14.40   13.30
  -2  -1 -18   -1.50   13.60
  -2   1 -18    9.60   12.60
  -3  -1 -18  327.37   14.80
   3  -1 -18  325.47   12.20
   3   1 -18  326.87   11.80
  -3  -1  18  359.76   11.80
  -3   1 -18  326.57   12.10
  -3  -1  18  360.86   28.90
  -3   1  18  363.06   21.10
  -3   1  18  332.97   14.30
  -3   1 -18  342.97   13.50
   4  -1 -18  126.89   13.70
  -4   1 -18  127.09   13.90
  -4  -1 -18  116.89   10.10
  -4   1 -18  123.89   11.60
   4   1 -18  139.79   13.20
  -4  -1 -18  120.59   15.00
  -4   1  18  122.19   11.40
  -4  -1  18  138.69   12.60
  -4   1  18  125.59   13.00
  -5   1 -18  113.19   15.10
  -5   1 -18  122.59   10.10
  -5  -1 -18  126.49   11.90
  -5   1  18  109.39   11.00
  -5  -1  18  110.59   10.60
   5  -1 -18  107.69   11.80
  -5  -1 -18  112.69   12.70
   5   1 -18  105.69   11.20
  -6  -1 -18   24.30   10.00
  -6   1 -18   19.00   12.50
  -6   1  18   25.90   10.80
  -6  -1 -18   30.90   16.50
  -6  -1  18   17.10   10.30
   6  -1 -18   21.10   14.40
   6   1 -18   13.60   11.00
  -6   1 -18   29.90   16.10
  -7   1 -18  264.97   19.80
  -7   1  18  248.38   12.40
  -7   1 -18  285.07   12.60
  -7  -1 -18  285.97   14.70
  -7  -1  18  245.88   14.10
   7  -1 -18  239.38   13.10
   7   1 -18  238.18   14.80
  -7  -1 -18  284.97   16.30
  -8  -1 -18   27.00   20.00
  -8   1  18   29.50   15.40
  -8   1 -18   33.50   15.60
  -8  -1 -18   22.50   15.10
  -8  -1  18    7.90   14.80
   8  -1 -18   35.70   16.50
   8   1 -18   22.00   15.90
  -8   1 -18   19.20   21.10
   0   2 -18  476.05   12.50
   0   2  18  453.65   12.20
   0  -2 -18  506.05   16.00
  -1  -2 -18  598.74   14.00
   1  -2 -18  614.14   16.70
  -1   2 -18  569.94   14.50
   1   2 -18  602.14   15.00
  -1   2  18  542.35   14.00
  -2   2 -18  835.52   15.60
  -2   2  18  870.61   16.30
   2  -2 -18  871.11   17.50
  -2  -2 -18  858.41   15.00
   2   2 -18  883.31   15.90
  -2  -2  18  936.21   16.60
  -3   2 -18   79.49   11.60
   3  -2 -18   66.39   13.90
   3   2 -18   54.09   10.50
  -3  -2 -18   89.19   18.20
  -3   2 -18   67.69   10.50
  -3  -2  18   79.49   12.50
  -3  -2  18   78.69   22.50
  -3   2  18   76.49   18.10
  -3   2  18   88.19   14.30
  -3  -2 -18   74.39   14.80
  -3   2 -18   75.99   12.10
  -4  -2 -18   90.39   11.30
  -4   2 -18   92.79   10.10
  -4  -2  18   85.49    9.80
   4   2 -18   89.69   12.60
  -4  -2 -18   85.69   14.90
  -4   2 -18   77.69   13.90
  -4   2  18   93.29   11.30
  -4   2  18   87.19   12.80
  -4   2 -18   79.09    9.80
   4  -2 -18   90.89   14.30
  -5  -2 -18  173.28   16.60
  -5  -2 -18  165.78   12.00
  -5   2 -18  164.68   10.20
  -5   2  18  168.68   11.80
  -5   2 -18  157.08   14.70
   5  -2 -18  167.58   12.60
  -5  -2  18  153.18   12.50
   5   2 -18  156.38   10.90
  -5   2  18  154.08   12.30
  -6   2 -18   14.00   12.40
  -6  -2 -18   12.50   12.20
  -6   2  18   17.70   14.20
  -6  -2  18    7.90   12.40
   6  -2 -18    5.00   14.80
   6   2 -18   12.90   10.80
  -6  -2 -18   20.80   16.40
  -6   2 -18    6.90   13.00
  -7   2  18   41.00   14.30
  -7  -2 -18   49.50   17.70
  -7   2 -18   41.40   11.80
  -7  -2 -18   43.00   13.50
   7  -2 -18   46.80   15.50
  -7  -2  18   34.20   12.90
   7   2 -18   42.10   14.40
   8  -2 -18   26.40   16.50
  -8   2  18   16.10   12.50
  -8  -2 -18   19.20   16.40
  -8   2 -18    5.90   15.90
  -8  -2 -18   15.10   15.20
   8   2 -18   11.20   12.40
  -8  -2  18   20.00   14.50
   1  -3 -18  509.75   17.40
  -1   3 -18  458.45   13.90
  -1   3  18  461.15   16.40
   1   3 -18  467.45   12.90
  -1  -3 -18  471.35   16.80
  -2   3  18   27.90   16.20
  -2   3 -18   21.30    9.80
  -2  -3 -18   29.80   14.60
   2  -3 -18   16.10   15.00
   2   3 -18   12.10   12.80
  -2   3 -18   24.50   18.70
  -2  -3  18   26.90   13.00
  -2  -3 -18   27.40   16.30
  -3   3 -18    7.90    9.20
  -3  -3  18   10.00   11.60
   3  -3 -18   26.70   11.80
   3   3 -18   11.60   11.80
  -3  -3 -18    5.70   15.00
  -3  -3 -18    6.00   15.40
  -3   3  18   11.70   14.60
  -3  -3  18    3.60   20.30
  -3   3  18   10.00   17.40
  -3   3 -18    8.10   11.60
  -3   3 -18    8.30   12.10
  -4  -3 -18    4.10   10.70
  -4   3 -18    7.60    9.50
   4   3 -18    4.60   12.10
  -4  -3  18    3.10    9.40
  -4   3  18    7.80   14.60
  -4  -3  18    3.80   15.60
  -4   3 -18   -3.00   10.80
  -4   3  18    4.30   12.60
  -4  -3 -18   16.10   15.20
  -4   3 -18    2.90    9.20
   4  -3 -18    5.90   12.30
  -5  -3  18  461.15   13.20
  -5  -3 -18  474.35   13.20
  -5   3 -18  489.65   11.30
  -5  -3 -18  504.35   16.70
  -5   3  18  473.25   16.00
   5  -3 -18  460.35   14.20
  -5   3 -18  440.96   13.10
  -5   3  18  427.06   15.50
  -5   3 -18  426.06   12.10
   5   3 -18  475.85   12.10
  -6   3 -18  151.78   11.60
  -6   3  18  217.88   12.70
  -6   3 -18  220.58   14.00
  -6  -3 -18  237.68   12.90
  -6  -3 -18  234.08   17.00
   6  -3 -18  202.68   16.40
  -6   3 -18  200.88   13.90
   6   3 -18  204.08   13.60
  -6  -3  18  225.08   12.80
  -6   3  18  166.98   12.10
  -7   3  18   24.10   12.50
  -7   3 -18   15.60   14.60
  -7  -3 -18   18.20   13.40
   7  -3 -18   16.00   16.80
   7   3 -18   15.20   14.00
  -7  -3 -18   21.60   17.90
  -7  -3  18   18.00   10.60
  -7   3  18   13.60   14.50
  -8   3  18   13.80   13.50
  -8   3 -18   -0.70   15.70
  -8  -3 -18    3.40   15.00
   8  -3 -18   10.60   14.00
   8   3 -18   11.70   15.60
  -8  -3  18   11.80   14.60
  -8  -3 -18   10.40   22.30
  -8   3  18   -3.80   14.20
   0   4 -18  706.53   13.20
   0  -4 -18  740.63   15.60
   0   4  18  680.93   15.20
   1  -4 -18  275.47   16.20
  -1   4  18  255.77   12.60
  -1   4 -18  259.57   13.10
  -1  -4 -18  285.57   15.90
   1   4 -18  263.87   13.40
  -2  -4 -18   60.79   14.70
   2  -4 -18   57.19   15.20
  -2   4 -18   53.79   12.10
  -2   4 -18   59.39   16.10
   2   4 -18   58.89   12.60
  -2  -4 -18   58.09   14.90
  -2   4  18   57.99   13.90
  -2  -4  18   54.89   19.10
  -3   4 -18  143.79   12.70
  -3   4 -18  140.79   10.40
   3  -4 -18  139.49   15.40
  -3  -4 -18  154.98   14.90
   3   4 -18  139.19   12.90
  -3   4  18  137.99   16.50
  -3  -4 -18  138.19   16.30
  -3  -4  18  138.29   10.00
  -3   4  18  149.29   17.60
  -3  -4  18  135.79   21.10
  -3   4 -18  142.29   12.60
  -4  -4 -18  391.26   12.50
  -4   4 -18  396.96   13.40
  -4  -4 -18  365.56   18.50
   4   4 -18  374.06   13.90
  -4   4  18  382.06   16.40
  -4  -4  18  382.46   18.30
  -4  -4 -18  386.46   16.50
  -4   4  18  385.56   15.60
  -4   4 -18  367.36   12.10
  -4  -4  18  387.06   13.10
   4  -4 -18  369.96   16.50
  -4   4 -18  384.46   12.10
  -5  -4 -18   14.70   11.60
  -5   4 -18   24.10   10.30
  -5   4  18    5.00   14.90
  -5  -4  18   12.20   12.00
  -5  -4  18   14.60   14.20
   5  -4 -18    4.00   12.70
  -5   4 -18   10.70   11.60
  -5  -4 -18   15.10   15.20
  -5   4  18   13.70   12.00
  -5   4 -18   11.70   10.30
   5   4 -18    9.80   12.90
  -6  -4 -18   18.30   16.10
  -6  -4  18    7.40   12.30
  -6   4 -18    3.60   13.40
  -6  -4 -18   12.80   12.10
   6  -4 -18    4.70   16.40
   6   4 -18   12.80   13.10
  -6   4  18    7.50   13.10
  -6   4 -18    6.30    9.50
  -7  -4  18   16.50   11.00
  -7   4  18   12.20   13.20
  -7  -4 -18   10.60   17.60
  -7   4 -18   13.50   12.20
  -7  -4 -18    7.70   13.50
   7  -4 -18   12.10   17.40
   7   4 -18   10.00   11.70
  -7   4  18    4.00   14.30
  -7   4 -18    9.70   10.40
  -8  -4  18    7.60   14.60
  -8   4  18    7.90   14.20
  -8  -4 -18   -0.60   18.80
  -8   4 -18   -1.90   13.90
   8  -4 -18   -2.00   18.30
  -8  -4 -18    8.10   15.50
   8   4 -18    7.20   15.50
  -8   4  18    5.00   14.70
  -8   4 -18    0.50   12.20
   1  -5 -18   60.19   12.40
  -1   5  18   63.39   12.10
  -1  -5 -18   64.99   12.30
  -1   5 -18   70.69   12.20
   1   5 -18   71.79   12.40
   2  -5 -18    9.30   11.20
  -2   5 -18    3.50    9.20
  -2   5 -18    7.90   13.80
   2   5 -18    8.70   11.70
  -2  -5 -18    8.30   13.80
  -2   5  18    8.00   13.10
  -2  -5 -18    8.00   14.40
  -2  -5  18    4.80   17.70
  -3   5 -18  172.08   10.80
  -3  -5 -18  181.28   16.80
  -3   5 -18  170.08   12.60
   3   5 -18  179.08   12.90
  -3   5  18  175.88   17.80
  -3  -5  18  187.88   12.30
  -3  -5 -18  167.18   14.30
  -3   5  18  182.48   16.60
  -3   5 -18  170.78   11.60
  -3  -5  18  167.28   19.80
   3  -5 -18  176.58   15.30
  -4  -5 -18  260.47   11.80
  -4   5 -18  276.97   13.40
   4   5 -18  257.07   11.10
  -4   5  18  259.67   17.00
  -4  -5 -18  276.47   15.60
  -4   5 -18  278.47   14.10
  -4  -5  18  265.57   10.60
  -4  -5 -18  241.48   15.20
  -4  -5  18  251.37   16.10
  -4   5  18  269.47   14.40
  -4   5 -18  263.97   12.00
   4  -5 -18  259.57   13.60
  -5   5  18   21.60   15.90
  -5  -5 -18    4.40   11.10
  -5   5 -18   22.90   13.20
  -5   5 -18    7.50   13.90
  -5  -5 -18    4.40   17.40
  -5  -5  18    5.50   13.90
  -5  -5 -18    7.10   15.00
   5  -5 -18    2.20   16.00
  -5   5  18   10.40   12.60
  -5   5 -18    5.50   10.60
  -5  -5  18    4.50   12.10
   5   5 -18    9.00   10.40
  -6  -5  18   -0.40   14.50
  -6   5  18    2.80   13.60
  -6   5 -18   -8.80   14.20
  -6  -5 -18    8.40   14.10
  -6  -5  18    4.20   12.30
   6  -5 -18   19.60   17.40
  -6  -5 -18   -0.10   16.30
   6   5 -18    4.90   13.10
  -6   5  18    5.80   13.10
  -6   5 -18    3.00   11.20
  -7   5  18   45.70   13.80
  -7   5 -18   38.50   12.90
  -7  -5  18   38.60   13.20
  -7  -5 -18   44.20   13.80
   7  -5 -18   31.30   14.80
   7   5 -18   43.20   14.40
  -7   5  18   16.50   13.20
  -7   5 -18   30.60   12.40
  -7  -5 -18   41.50   16.60
  -8  -5 -18   90.89   21.30
   8  -5 -18   49.40   19.90
  -8  -5 -18   59.99   17.80
   8   5 -18   61.29   15.90
   0  -6 -18   18.60   14.20
   0   6 -18   24.40    9.80
   0   6  18   25.70   12.90
   1   6 -18  178.98   13.00
   1  -6 -18  191.18   13.20
  -1   6  18  168.48   16.00
  -1  -6 -18  212.08   15.90
  -1   6 -18  195.18   12.30
  -1  -6 -18  190.98   13.70
  -2   6 -18  292.37   11.50
   2  -6 -18  304.27   15.70
  -2   6 -18  293.77   10.80
  -2   6  18  317.47   23.80
  -2   6 -18  317.47   15.80
  -2  -6 -18  334.97   15.40
   2   6 -18  301.17   13.00
  -2   6  18  261.07   14.50
  -2  -6 -18  288.57   14.70
  -2  -6  18  298.67   19.60
  -3   6 -18  133.29   13.00
  -3   6 -18  123.29   10.20
   3   6 -18  136.39   10.80
  -3   6  18  136.19   19.50
  -3   6  18  121.79   14.30
  -3   6 -18  132.29   12.00
  -3  -6 -18  124.49   13.80
  -3  -6  18  119.69   17.20
  -3  -6 -18  139.89   15.30
   3  -6 -18  137.79   12.20
  -4  -6 -18   14.00   10.80
  -4  -6 -18   29.40   17.40
  -4   6 -18    9.80   12.90
   4   6 -18   14.40   12.40
  -4   6  18   24.10   17.90
  -4   6 -18   22.60   10.60
  -4  -6 -18   18.00   15.60
  -4  -6  18   23.70   14.70
  -4   6  18   18.50   13.30
  -4   6 -18   15.20   10.90
   4  -6 -18   15.40   12.90
  -4  -6  18   15.30   11.60
   5   6 -18   44.40   12.80
  -5   6  18   50.79   13.70
  -5   6 -18   49.10   11.90
  -5  -6 -18   56.39   13.40
  -5   6 -18   43.70   11.40
  -5  -6 -18   49.20   15.10
  -5  -6 -18   49.99   14.40
  -5  -6  18   47.20   14.50
   5  -6 -18   51.69   15.60
  -5  -6  18   48.60   12.30
  -5   6  18   46.20   13.80
  -5   6 -18   43.10    9.30
  -6  -6  18   35.30   12.70
  -6   6  18   49.10   16.70
  -6  -6  18   29.30   14.80
  -6   6 -18   37.70   14.60
  -6  -6 -18   39.60   14.20
  -6  -6 -18   49.10   16.00
  -6  -6 -18   31.00   15.90
   6  -6 -18   57.89   17.10
  -6   6  18   38.30   13.90
   6   6 -18   33.30   13.20
  -6   6 -18   25.90   10.30
  -7   6  18   12.40   17.50
  -7   6 -18    4.00   13.30
  -7  -6 -18   -9.00   13.40
  -7  -6  18    0.90   13.30
   7  -6 -18    1.50   15.50
  -7  -6 -18    2.40   18.90
   7   6 -18   11.10   14.70
  -7   6  18   10.60   13.40
  -7   6 -18    2.70   11.20
  -7  -6  18   -0.70   13.70
   1   7 -18   12.10   10.50
   1  -7 -18   22.50   13.80
  -1   7  18   14.60   15.40
  -1  -7 -18   12.70   15.70
  -1   7 -18   16.10    8.90
  -1  -7 -18    8.50   11.60
  -2   7 -18   84.99   10.90
  -2   7  18   82.89   19.20
  -2  -7 -18   88.89   14.40
  -2   7 -18   82.89   13.00
  -2   7 -18   70.09   12.20
   2   7 -18   80.89   12.50
  -2   7  18   91.89   17.60
  -2  -7 -18   83.09   12.10
  -2  -7  18   77.29   16.40
   2  -7 -18   85.69   14.60
  -3   7 -18   26.40   13.10
  -3   7  18   27.60   14.70
  -3   7 -18   36.70   12.20
   3   7 -18   20.30   12.60
  -3   7  18   35.40   21.70
  -3   7 -18   25.20   11.50
  -3  -7 -18   23.80   13.30
  -3  -7 -18   28.00   16.40
  -3  -7  18   26.80   16.60
   3  -7 -18   21.50   14.80
  -4  -7 -18   22.50   12.40
  -4   7 -18   30.70   13.80
   4   7 -18   24.40   12.00
  -4   7  18   30.50   18.30
  -4  -7 -18   20.20   15.40
  -4  -7  18   20.00   14.90
  -4   7  18   23.00   13.70
  -4   7 -18   15.80   11.30
   4  -7 -18   22.40   12.30
  -4   7 -18   16.60   13.10
  -4  -7 -18   12.10   16.50
  -5  -7 -18   -2.30   17.00
  -5   7 -18    3.90   11.60
  -5   7  18    8.90   17.20
  -5  -7 -18    5.50   11.30
  -5   7 -18   -3.20   14.20
  -5  -7 -18   -1.00   14.70
  -5  -7  18   -2.10   14.60
   5  -7 -18   -4.00   14.90
  -5   7  18   -1.70   13.80
  -5   7 -18    3.70    9.90
  -5  -7  18    0.60   12.20
   5   7 -18   11.60   13.20
  -6   7  18  217.48   15.40
  -6  -7  18  225.18   14.10
  -6  -7 -18  216.18   19.30
  -6   7 -18  230.58   13.60
  -6  -7 -18  228.28   15.80
  -6  -7 -18  167.88   16.90
  -6  -7  18  207.38   14.30
   6  -7 -18  212.98   17.90
  -6   7  18  176.98   13.80
   6   7 -18  219.68   14.90
  -6   7 -18  190.08   11.60
  -7   7  18    6.40   15.10
  -7  -7 -18    6.50   19.30
  -7   7 -18   14.40   13.70
   7  -7 -18   13.10   15.70
  -7  -7 -18   10.40   19.90
  -7  -7  18    2.40   13.90
   7   7 -18    0.60   15.10
  -7  -7  18    1.70   14.20
  -7   7  18   10.60   14.30
  -7   7 -18    4.40   11.50
  -7  -7 -18    9.70   16.40
   0  -8 -18   20.40   13.60
   0   8 -18   15.90   12.20
   0   8  18   14.20   13.60
   1  -8 -18  381.76   15.00
  -1   8 -18  374.16   14.10
   1   8 -18  391.26   11.70
  -1  -8 -18  373.36   15.30
  -1   8  18  388.66   16.60
  -1   8 -18  390.66   11.60
  -1  -8 -18  371.96   13.90
  -2   8 -18   46.60   13.60
  -2  -8 -18   46.60   17.00
  -2   8  18   49.00   17.50
  -2   8 -18   44.10   13.00
  -2   8 -18   34.70   12.00
   2   8 -18   31.00   12.60
  -2   8  18   35.20   17.00
  -2  -8 -18   43.00   11.90
  -2  -8  18   37.50   15.00
   2  -8 -18   28.50   13.80
  -3   8 -18   28.50   11.20
  -3   8 -18   14.80   12.20
   3   8 -18   24.60   12.40
  -3   8  18   17.80   20.40
  -3  -8 -18   26.10   16.30
  -3   8 -18   17.90   12.00
  -3   8  18   22.50   14.90
  -3  -8 -18   16.20   13.80
  -3  -8  18   11.90   16.60
   3  -8 -18   24.30   13.90
  -4   8  18    2.30   13.90
  -4  -8 -18    5.60   12.40
   4   8 -18    0.10   13.00
  -4   8 -18    5.50   14.30
  -4   8  18   10.90   20.20
  -4   8 -18   -3.40   10.70
  -4  -8 -18    2.50   16.70
  -4  -8 -18    0.00   14.00
  -4   8 -18    8.40   10.50
   4  -8 -18    1.50   12.40
  -4  -8  18    5.40   15.20
  -5   8 -18   75.29   12.10
  -5   8  18   69.39   19.00
  -5   8 -18   53.89   15.40
  -5  -8 -18   74.79   13.60
   5  -8 -18   74.19   12.90
  -5  -8  18   67.29   13.10
  -5   8  18   60.39   14.90
  -5   8 -18   61.49   11.00
  -5  -8 -18   51.99   15.40
  -5  -8 -18   74.19   17.60
   5   8 -18   66.19   13.60
  -6   8  18   13.90   15.10
  -6   8 -18   13.30   16.40
  -6  -8 -18    4.10   17.00
   6  -8 -18    9.60   14.20
  -6  -8 -18    2.90   16.20
  -6   8  18    9.60   13.30
  -6   8 -18   -6.80   11.20
  -6  -8  18   -6.90   15.10
   6   8 -18   10.40   15.90
  -6  -8 -18    3.70   20.70
  -7   8  18   -6.30   15.90
  -7   8 -18   19.60   18.00
   7  -8 -18   18.20   15.80
  -7  -8 -18   13.10   17.40
  -7  -8  18   -3.50   14.20
  -7  -8 -18    1.90   18.70
   7   8 -18   12.40   14.90
  -7   8  18    2.20   15.30
  -7   8 -18   12.50   14.00
  -7  -8  18   21.40   16.50
  -7  -8 -18   10.60   24.00
   1   9 -18    8.10   10.20
  -1   9 -18    7.80   12.30
  -1  -9 -18    2.80   13.10
  -1   9  18   -8.40   15.00
  -1   9 -18    8.90   12.00
   1  -9 -18    2.80   13.10
  -1  -9 -18    1.50   10.90
  -1  -9  18    3.50   14.10
  -2   9 -18   12.20   10.90
  -2  -9 -18    0.30   15.30
  -2   9 -18    4.40   10.00
  -2   9 -18    3.20   11.60
   2   9 -18    5.40   12.90
  -2   9  18   -2.10   16.70
   2  -9 -18    5.40   13.40
  -2  -9 -18    0.80   12.20
  -2  -9  18    2.40   15.00
  -3   9 -18   71.69   11.30
  -3   9 -18   65.59   10.20
  -3  -9 -18   69.89   16.20
   3   9 -18   70.69   13.40
  -3   9  18   63.59   19.80
  -3   9  18   72.79   13.60
  -3   9 -18   69.99   12.80
   3  -9 -18   69.79   14.40
  -3  -9 -18   60.89   14.30
  -3  -9  18   74.39   16.90
  -4  -9 -18  174.08   13.50
   4   9 -18  169.08   14.00
  -4   9 -18  183.18   15.60
  -4   9  18  169.98   20.80
  -4   9 -18  176.18   11.80
  -4  -9 -18  185.68   17.20
  -4   9  18  178.78   14.00
   4  -9 -18  166.58   15.10
  -4   9 -18  173.78   13.10
  -4  -9 -18  162.88   16.60
  -4  -9  18  175.78   14.50
  -5   9 -18    8.70   14.70
  -5   9  18   20.40   19.30
  -5   9 -18   26.10   16.20
  -5  -9 -18   21.70   15.60
  -5  -9 -18   14.20   19.60
   5  -9 -18    2.90   12.90
  -5  -9 -18   11.50   15.00
  -5  -9  18   15.50   15.20
  -5   9  18   14.60   13.50
  -5   9 -18   10.80   11.00
   5   9 -18   19.10   13.70
  -6   9  18   38.00   16.90
  -6   9 -18   35.80   17.80
   6  -9 -18   43.40   17.90
  -6  -9 -18   25.60   19.60
  -6  -9 -18   32.70   22.50
  -6  -9 -18   22.80   16.40
  -6  -9  18   21.60   15.60
  -6   9  18   25.00   16.40
  -6   9 -18   21.50   11.80
   6   9 -18   26.90   14.40
   0  10 -18   37.80   12.20
   0  10 -18   35.50   10.60
   0  10  18   32.90   15.40
   0 -10 -18   39.50   12.90
   1  10 -18   59.49   13.20
  -1  10 -18   66.59   12.70
  -1  10  18   77.19   14.70
   1 -10 -18   70.09   13.40
  -1  10 -18   88.89   12.80
  -1 -10 -18   79.29   11.80
  -1 -10 -18   76.19   13.40
  -1 -10  18   74.39   15.30
  -2 -10 -18  236.78   17.90
  -2  10 -18  240.88   12.10
  -2  10 -18  255.27   13.60
  -2  10 -18  267.57   14.70
   2  10 -18  255.87   14.40
   2 -10 -18  243.08   14.50
  -2  10  18  256.27   17.50
  -2 -10 -18  239.48   13.80
  -2 -10  18  233.08   15.10
  -3 -10 -18  173.18   15.20
  -3 -10 -18  159.98   16.20
  -3  10 -18  178.08   15.50
  -3  10 -18  171.08   13.50
   3  10 -18  164.88   14.10
  -3  10  18  170.28   19.50
  -3  10  18  187.58   16.80
   3 -10 -18  181.48   14.60
  -3 -10 -18  149.79   13.40
  -3 -10  18  169.38   14.90
  -3  10 -18  174.68   12.30
   4  10 -18   18.10   13.30
  -4 -10 -18   29.00   18.10
  -4 -10 -18   23.70   16.50
  -4  10 -18   27.80   13.00
  -4  10  18   22.10   21.00
  -4  10 -18   22.00   13.90
   4 -10 -18   30.10   14.70
  -4  10  18   36.20   13.90
  -4  10 -18   19.00   11.40
  -4 -10 -18   19.50   14.40
  -4 -10  18   33.40   13.60
  -5  10  18   10.40   17.30
  -5 -10 -18    5.70   23.90
  -5  10 -18   24.00   16.80
  -5 -10 -18    1.70   19.40
   5 -10 -18    8.20   16.00
  -5  10  18    5.50   13.70
  -5 -10 -18    9.40   18.20
  -5  10 -18   -6.60   13.50
  -5 -10  18   -0.90   13.40
  -5  10 -18    7.50   12.20
   5  10 -18    3.20   13.70
  -6  10  18   36.10   20.90
  -6 -10 -18    8.20   31.70
  -6  10 -18   21.10   14.90
   6 -10 -18   19.80   17.80
  -6 -10 -18   12.40   16.70
  -6 -10  18   13.70   13.80
  -6  10  18   -6.20   15.20
  -6  10 -18    7.10   12.60
   6  10 -18   23.70   16.70
  -6 -10 -18   17.60   29.30
   1  11 -18   10.50   12.40
  -1  11 -18   18.10   10.60
  -1  11  18   24.00   14.40
   1 -11 -18   22.20   15.20
  -1  11 -18   17.20   12.70
  -1 -11 -18   11.60   15.00
  -1 -11 -18   10.50   12.00
   1  11 -18   13.80   13.40
  -2  11 -18   31.30   13.90
  -2  11 -18   27.30   12.90
  -2  11 -18   40.60   14.90
   2  11 -18   37.10   13.50
   2 -11 -18   34.10   13.80
  -2 -11 -18   38.50   13.70
  -2 -11 -18   26.40   15.00
  -2  11  18   27.50   18.60
  -2 -11  18   26.60   17.10
  -3  11 -18   50.09   13.90
  -3 -11 -18   46.40   15.20
  -3  11 -18   54.19   14.70
   3  11 -18   58.29   15.60
  -3  11  18   43.10   18.50
  -3  11  18   46.60   17.20
  -3  11 -18   48.40   14.10
   3 -11 -18   34.80   14.90
  -3 -11 -18   49.40   15.40
  -3 -11  18   52.59   16.80
  -3 -11 -18   36.90   17.30
   4  11 -18   60.69   14.10
  -4  11 -18   81.59   16.70
  -4  11  18   77.19   21.50
  -4 -11 -18   60.09   20.70
   4 -11 -18   61.89   15.40
  -4  11  18   59.59   14.80
  -4  11 -18   55.09   12.60
  -4 -11 -18   47.10   15.20
  -4 -11  18   56.49   14.00
  -4 -11 -18   46.80   23.30
  -4  11 -18   50.19   14.20
  -5  11  18  125.59   22.30
  -5  11 -18  104.29   15.30
   5 -11 -18   97.59   17.20
  -5  11  18   91.19   17.80
  -5  11 -18   86.39   13.20
  -5 -11 -18   90.79   16.80
  -5 -11  18  104.79   16.40
  -5  11 -18   95.09   15.80
   5  11 -18   96.39   14.90
   0  12 -18  493.25   15.20
   0  12 -18  497.25   15.60
   0 -12 -18  479.95   17.60
   1  12 -18   64.39   13.10
  -1  12 -18   79.99   13.40
   1 -12 -18   75.09   16.20
  -1 -12 -18   72.19   17.40
  -1  12 -18   97.99   13.50
  -1  12  18   89.29   17.90
   1  12 -18   87.69   14.50
  -1 -12 -18   77.39   13.40
   2  12 -18    4.70   12.10
  -2  12 -18    7.20   13.80
  -2  12 -18    6.80   13.30
   2 -12 -18    0.90   13.90
   2  12 -18   15.70   16.10
  -2 -12 -18    5.00   18.30
  -2 -12 -18   -2.10   14.10
  -2 -12  18    6.30   14.80
  -2  12  18   -1.90   16.10
  -3 -12 -18   -1.20   20.90
  -3  12 -18    4.40   14.80
   3  12 -18   -4.70   13.80
  -3  12  18   -3.40   15.50
  -3  12 -18    1.50   13.00
   3 -12 -18    2.40   14.80
  -3  12  18    4.40   17.70
  -3 -12 -18    3.00   22.90
  -3 -12 -18    5.40   13.60
  -3  12 -18   18.90   13.40
  -3 -12  18    6.00   16.60
   4  12 -18   96.99   14.70
  -4  12 -18  103.29   17.70
  -4  12  18  133.49   21.60
   4 -12 -18  116.29   16.10
  -4  12  18  119.59   18.50
  -4  12 -18  101.69   13.60
  -4  12 -18  122.59   15.30
  -4 -12 -18   85.19   15.80
  -4 -12  18  117.59   16.70
  -5  12  18   26.60   22.50
  -5  12 -18   21.20   19.60
   5 -12 -18   16.10   16.70
  -5  12 -18   15.00   13.40
  -5  12  18   24.10   18.70
  -5 -12 -18   17.60   16.90
  -5 -12  18   12.00   16.80
  -5  12 -18   16.50   16.50
   5  12 -18   31.90   17.00
   1  13 -18   22.30   12.90
  -1  13  18   23.00   17.40
  -1  13 -18   40.30   13.80
   1 -13 -18   30.20   15.60
  -1 -13 -18   20.80   17.20
  -1  13 -18   26.90   14.00
   1  13 -18   23.20   17.00
  -1 -13 -18   28.30   12.20
  -2 -13 -18   12.00   20.40
   2  13 -18    9.80   12.80
  -2  13  18    8.40   16.40
  -2  13 -18   17.50   13.90
  -2  13 -18   23.60   14.40
   2 -13 -18    9.90   14.10
  -2 -13 -18   18.80   21.50
   2  13 -18   13.00   14.10
  -2 -13 -18   12.70   12.80
  -2 -13  18   21.00   18.00
   3  13 -18   29.00   13.50
   3  13 -18   60.49   14.90
  -3  13 -18   59.09   15.70
   3 -13 -18   65.79   15.50
  -3  13  18   63.39   16.80
  -3  13 -18   72.79   16.50
  -3  13  18   76.29   18.80
  -3  13 -18   55.99   14.70
  -3 -13 -18   60.59   16.90
  -3 -13  18   54.39   15.00
   4  13 -18    6.60   15.70
   4  13 -18   19.30   17.20
  -4  13 -18   20.50   17.30
  -4  13  18   30.40   20.60
   4 -13 -18   21.60   16.30
  -4  13 -18   21.10   15.20
  -4  13  18   -8.80   17.20
  -4  13 -18   13.90   14.30
  -4 -13 -18   30.50   16.20
  -4 -13  18   14.70   14.70
   0  14 -18   33.50   15.00
   0  14 -18   27.50   13.90
   0 -14 -18   19.20   18.00
   1  14 -18    3.10   13.60
  -1  14 -18   33.80   16.80
  -1 -14 -18   10.20   20.80
   1 -14 -18    8.60   16.20
  -1  14 -18   11.30   14.70
  -1  14  18    8.30   17.50
   1  14 -18    8.70   17.60
   2  14 -18  153.78   18.90
   2  14 -18   89.79   14.80
  -2  14 -18  175.68   13.30
  -2  14  18  148.39   20.60
   2 -14 -18  145.09   15.80
  -2 -14 -18  147.89   14.70
  -2 -14  18  156.08   19.30
  -2  14 -18  181.98   13.10
   3  14 -18    9.60   16.00
   3  14 -18   21.00   17.60
  -3  14 -18   32.00   16.20
   3 -14 -18   25.00   18.10
  -3  14 -18   19.60   14.70
  -3  14 -18   18.90   12.40
  -3  14  18   -7.30   19.30
  -3 -14 -18   12.00   15.40
  -3 -14  18   15.60   15.40
   1  15 -18    4.50   14.20
  -1  15  18   30.30   20.70
  -1  15 -18   13.80   15.60
   1 -15 -18   23.00   17.00
  -1  15 -18   18.10   16.20
   1  15 -18   20.60   18.80
   2  15 -18    8.90   16.30
   2 -15 -18   -1.10   17.90
  -2  15  18    2.90   20.30
  -2 -15 -18    5.60   15.00
  -1  -1 -19  139.29   12.30
  -1   1 -19  133.99   11.30
  -1  -1  19  149.69   11.50
   1  -1 -19  168.28   12.20
   1   1 -19  146.79   13.90
  -1   1  19  161.68   15.10
   2  -1 -19    8.10   11.20
  -2  -1  19   13.80   13.40
  -2  -1 -19   -0.70   14.30
   2   1 -19   11.60   12.80
  -2   1  19    0.90   11.70
  -2   1 -19    9.40   12.70
  -3   1  19   34.50   14.20
   3  -1 -19   19.20   11.60
  -3   1 -19   21.90   10.80
   3   1 -19   23.50   10.50
  -3  -1  19   34.20   10.50
  -3  -1 -19   22.50   11.60
  -3  -1 -19   35.50   20.70
  -3   1 -19   26.50   13.90
   4  -1 -19   31.90   13.50
  -4  -1 -19   25.60   11.30
  -4   1 -19   21.30   11.40
   4   1 -19   31.40   10.80
  -4  -1  19   29.40   12.30
  -4  -1 -19   13.50   15.20
  -4   1 -19   36.10   13.90
  -4   1  19   25.20   13.30
  -4   1  19   20.30   14.30
  -4   1 -19   25.10   10.40
  -5   1  19   15.00   12.10
  -5  -1 -19   15.60   11.50
  -5   1 -19   17.70   12.10
  -5   1 -19   20.90   15.40
  -5   1  19   25.30   10.90
  -5  -1 -19   22.90   16.00
  -5  -1  19   25.30   12.50
   5  -1 -19   18.30   13.90
   5   1 -19    8.50   13.30
  -6   1 -19   37.60   12.90
  -6  -1 -19   37.20   12.70
  -6   1  19   27.00   10.80
  -6  -1  19   31.20   10.40
  -6   1 -19   36.10   14.30
   6  -1 -19   31.40   14.40
   6   1 -19   13.70   13.90
  -6  -1 -19   43.50   14.50
  -7  -1 -19  -12.70   18.40
  -7   1 -19    8.90   14.20
  -7  -1 -19   10.40   14.00
  -7   1  19    1.60   11.90
  -7   1 -19   -1.50   18.70
  -7  -1  19    9.30   11.00
   7  -1 -19   -0.80   15.50
   7   1 -19   -0.30   14.40
  -8  -1 -19    9.60   16.90
  -8   1  19    8.80   12.80
  -8   1 -19    4.90   15.80
  -8  -1 -19    4.10   15.70
  -8   1 -19   19.20   21.90
   8  -1 -19   13.30   13.90
   8   1 -19   15.90   16.40
  -8  -1  19   11.20   15.30
   0   2 -19  145.39   13.40
   0  -2 -19  154.68   15.40
  -1   2  19   91.59   14.90
  -1   2 -19   80.49   10.80
   1  -2 -19   90.69   12.60
   1   2 -19   86.89   13.30
  -1  -2 -19   99.89   15.10
  -2  -2 -19  255.07   15.00
   2  -2 -19  269.97   15.50
  -2   2  19  270.37   13.70
   2   2 -19  265.27   11.50
  -2   2 -19  252.37   13.40
  -2  -2  19  281.27   11.80
  -3   2 -19   53.99    9.70
   3  -2 -19   43.60   11.60
   3   2 -19   49.20   12.80
  -3   2 -19   35.30   13.40
  -3  -2 -19   48.30   18.60
  -3  -2 -19   51.39   14.20
  -3   2  19   45.10   27.00
  -3  -2  19   47.70   29.60
  -3   2 -19   46.20   14.00
  -3  -2  19   36.70   12.60
  -3   2  19   42.80   14.90
  -4  -2 -19   78.39   11.30
  -4   2 -19   80.79   11.50
   4   2 -19   62.19   12.80
  -4  -2  19   69.49   10.20
  -4  -2  19   72.99   19.40
  -4   2  19   83.39   13.80
  -4   2  19   80.99   15.70
  -4   2 -19   70.09   11.20
  -4   2 -19   69.19   11.00
  -4  -2 -19   76.99   12.60
   4  -2 -19   56.29   14.20
  -5  -2  19    3.50    9.70
  -5  -2 -19    6.40   11.90
  -5   2 -19   12.30   11.50
  -5  -2 -19   20.90   15.70
  -5   2  19    6.00   13.60
  -5   2 -19    6.40   13.80
   5  -2 -19   10.60   14.40
  -5   2  19    7.00   12.40
   5   2 -19    8.30   12.80
  -5   2 -19   13.10   10.00
  -6   2 -19   50.19   10.40
  -6  -2 -19   51.29   12.60
  -6   2  19   44.90   14.30
  -6   2 -19   39.30   16.30
  -6  -2 -19   60.39   17.00
   6  -2 -19   46.70   12.20
   6   2 -19   45.20   14.10
  -6  -2  19   50.19   13.10
  -6   2  19   42.10   13.60
  -7   2  19    5.80   14.70
  -7   2 -19    7.30   18.20
  -7   2  19   26.00   15.00
  -7   2 -19   -3.90   14.70
  -7  -2 -19   -1.30   13.40
   7  -2 -19  -10.10   15.50
   7   2 -19   -2.00   12.10
  -7  -2 -19    2.50   18.40
  -7  -2  19    0.50   13.70
  -8   2  19   13.70   17.20
  -8   2 -19   13.60   21.20
  -8   2  19    9.00   16.20
  -8   2 -19   -3.90   15.80
  -8  -2 -19    8.20   15.60
   8  -2 -19   -3.10   14.60
   8   2 -19    9.80   16.40
  -8  -2  19   14.40   12.70
  -8  -2 -19    8.00   20.70
   1  -3 -19  130.89   13.10
  -1   3 -19  118.99   12.70
   1   3 -19  123.59   10.80
  -1  -3 -19  129.79   15.60
  -1   3  19  101.49   12.30
  -2  -3 -19   29.20   13.10
   2  -3 -19   28.50   15.00
  -2   3  19   53.39   16.10
  -2  -3  19   31.30   10.80
   2   3 -19   34.00   12.70
  -2   3 -19   37.00   10.00
  -3   3 -19  152.58   10.60
   3  -3 -19  145.09   15.70
   3   3 -19  154.48   10.40
  -3  -3 -19  162.98   15.50
  -3  -3  19  169.68   12.50
  -3   3 -19  167.88   11.40
  -3  -3 -19  163.38   17.60
  -3   3  19  173.48   24.30
  -3   3 -19  170.88   14.50
  -3  -3  19  158.08   25.80
  -3   3  19  155.68   13.30
  -4  -3 -19  138.79   11.90
  -4   3 -19  152.08   12.60
   4   3 -19  147.19   12.90
  -4   3 -19  136.29   13.80
  -4  -3 -19  136.79   18.80
  -4   3  19  133.19   12.90
  -4  -3  19  147.19   18.80
  -4  -3  19  144.39   10.40
  -4  -3 -19  144.49   15.60
  -4   3  19  151.88   16.90
  -4   3 -19  145.39   12.20
   4  -3 -19  131.59   15.20
  -5  -3 -19   10.00   15.70
  -5   3 -19    6.30   14.70
  -5  -3 -19   11.50   11.80
  -5   3 -19   12.60   12.60
  -5  -3  19   17.20   12.10
  -5   3  19   13.20   11.60
   5  -3 -19    3.40   15.30
  -5   3  19    1.20   13.90
  -5   3 -19    3.00   10.30
   5   3 -19   13.30   12.70
  -6  -3  19  183.28   13.30
  -6   3 -19  200.58   14.10
  -6  -3 -19  207.78   13.00
  -6  -3 -19  206.68   17.60
  -6   3  19  191.68   15.80
   6  -3 -19  183.98   13.70
   6   3 -19  179.48   14.10
  -6   3  19  172.98   14.50
  -6   3 -19  192.38   17.20
  -6   3 -19  147.99   10.40
  -7   3 -19   16.10   15.00
  -7   3  19   25.50   15.70
  -7   3 -19   17.50   15.00
  -7  -3 -19   14.60   14.10
  -7  -3 -19   17.60   18.60
   7  -3 -19    2.90   13.70
   7   3 -19   26.80   14.70
  -7   3  19    4.90   14.50
  -7  -3  19   20.70   11.10
  -7   3 -19    9.60   12.40
  -8   3  19   46.70   13.90
  -8   3 -19   37.00   17.00
  -8  -3 -19   23.60   15.70
  -8   3 -19   31.80   22.80
   8  -3 -19   29.00   18.30
  -8  -3 -19   32.70   20.80
   8   3 -19   36.40   12.90
  -8   3  19    5.40   17.60
  -8   3 -19   16.30   12.60
   0   4  19  500.25   12.90
   0   4 -19  513.35   13.80
   0  -4 -19  530.25   17.50
   1  -4 -19  294.67   16.50
  -1   4 -19  273.77   11.00
  -1  -4 -19  323.87   16.70
  -1   4  19  271.27   12.80
   1   4 -19  317.27   13.90
  -2   4 -19  144.69   10.50
  -2   4  19  154.08   17.00
   2  -4 -19  165.78   15.30
  -2   4 -19  159.48   20.20
   2   4 -19  146.89   10.50
  -2  -4 -19  161.68   17.20
  -2  -4 -19  153.48   12.20
  -3   4 -19  173.48   13.00
   3  -4 -19  156.58   15.90
  -3  -4 -19  180.28   15.60
  -3  -4  19  175.38   12.50
   3   4 -19  182.48   12.90
  -3   4  19  184.18   22.20
  -3  -4 -19  170.98   17.50
  -3   4  19  172.38   14.10
  -3   4 -19  188.48   14.90
  -3   4 -19  170.88   13.30
  -3  -4  19  167.98   23.30
  -4  -4 -19  247.58   12.40
  -4  -4  19  242.58   10.60
  -4   4 -19  229.48   11.10
   4   4 -19  231.98   13.50
  -4   4 -19  219.78   14.40
  -4   4  19  228.88   13.40
  -4  -4 -19  247.68   15.90
  -4  -4 -19  223.28   19.50
  -4  -4  19  234.88   19.50
  -4   4  19  237.58   17.00
  -4   4 -19  237.98   13.40
   4  -4 -19  222.78   13.70
  -5  -4 -19   18.90   12.00
  -5   4 -19    7.60   12.90
  -5   4  19   23.20   13.00
  -5   4 -19   26.90   14.30
  -5  -4  19   12.40   15.90
  -5  -4  19   18.60   12.10
  -5  -4 -19   16.80   15.70
   5  -4 -19   29.00   16.00
  -5   4  19   19.30   12.80
  -5   4 -19   15.30   10.50
   5   4 -19   12.40   10.60
  -6   4  19   49.20   12.90
  -6   4 -19   46.70   13.50
  -6  -4 -19   39.60   12.70
  -6  -4  19   43.30   12.80
  -6  -4  19   29.50   13.20
   6  -4 -19   36.40   16.90
   6   4 -19   26.80   13.50
  -6   4  19   28.80   14.10
  -6   4 -19   33.40   16.30
  -6   4 -19   29.50   11.40
  -6  -4 -19   42.20   16.70
  -7  -4 -19   12.00   17.80
  -7  -4  19   -7.70   13.20
  -7   4  19   11.80   16.30
  -7   4 -19    2.00   15.60
  -7  -4 -19   -3.50   13.90
  -7   4 -19   12.90   18.80
   7  -4 -19    9.10   17.70
   7   4 -19    9.50   14.40
  -7   4  19    6.10   15.40
  -7   4 -19    3.30   10.80
   1  -5 -19  119.69   12.30
  -1  -5 -19  110.79   15.80
  -1   5  19  108.59   12.70
  -1   5 -19  104.09   10.30
   1   5 -19  117.79   12.60
  -2   5  19  135.89   17.40
   2  -5 -19  134.39   15.00
  -2   5 -19  118.09   10.60
  -2   5 -19  139.59   17.10
   2   5 -19  125.89   11.00
  -2  -5 -19  153.18   15.50
  -2  -5 -19  144.39   15.10
  -2  -5  19  140.59   18.50
  -3  -5 -19   49.00   15.60
  -3   5 -19   56.59   12.60
  -3  -5  19   57.29    9.90
   3   5 -19   48.60   10.40
  -3   5  19   53.19   19.40
  -3   5  19   45.00   15.00
  -3   5 -19   56.09   13.10
  -3  -5 -19   48.40   14.90
  -3   5 -19   46.70   10.40
  -3  -5  19   52.09   20.60
   3  -5 -19   60.99   15.00
  -4  -5  19  214.88   12.80
  -4  -5 -19  211.28   11.90
  -4   5 -19  206.28   11.20
   4   5 -19  206.68   11.30
  -4  -5 -19  218.18   15.70
  -4   5  19  176.58   13.90
  -4   5 -19  198.38   11.40
  -4  -5 -19  181.78   16.30
  -4  -5  19  203.78   18.40
  -4   5  19  212.38   17.00
  -4   5 -19  198.38   12.20
   4  -5 -19  195.68   16.40
   5   5 -19  187.48   13.30
  -5  -5 -19  183.08   12.40
  -5   5 -19  187.68   11.70
  -5  -5  19  194.28   12.70
  -5   5  19  173.08   14.30
  -5   5 -19  178.88   12.50
  -5  -5 -19  196.38   16.40
  -5  -5 -19  173.28   18.50
  -5  -5  19  175.08   15.80
   5  -5 -19  181.48   17.20
  -5   5  19  166.28   14.90
  -5   5 -19  155.68   11.70
  -6   5  19  106.59   17.10
  -6   5 -19  121.49   14.70
  -6  -5 -19  112.99   15.00
  -6  -5 -19   88.49   17.50
  -6  -5  19  104.89   15.90
   6  -5 -19  141.29   17.80
  -6  -5 -19  133.39   17.40
  -6  -5  19  114.79   12.80
   6   5 -19  121.59   13.80
  -6   5  19  122.29   15.50
  -6   5 -19   93.29   11.00
  -7   5  19   -3.20   17.10
  -7   5 -19   16.60   15.40
  -7  -5 -19    4.90   14.20
  -7  -5  19    6.70   16.10
   7  -5 -19   18.00   18.50
  -7  -5  19    9.30   13.20
   7   5 -19    7.50   14.10
  -7  -5 -19    1.30   19.60
  -7   5  19    7.80   16.00
  -7   5 -19    3.40   11.10
   0  -6 -19   24.50   15.00
   0   6 -19    9.40   12.60
   0   6  19    6.50   13.80
   1  -6 -19  406.26   14.10
  -1  -6 -19  399.76   16.40
  -1   6  19  389.86   15.90
  -1   6 -19  386.36   13.80
   1   6 -19  413.26   13.40
  -2   6 -19  253.57   11.40
   2  -6 -19  280.77   15.80
  -2   6 -19  277.87   13.00
  -2   6 -19  281.57   16.80
  -2  -6 -19  322.67   15.70
   2   6 -19  267.37   13.40
  -2  -6 -19  271.67   14.30
  -2  -6  19  280.07   18.30
  -2   6  19  265.67   18.10
  -3   6 -19  233.18   11.50
   3   6 -19  231.48   13.40
  -3   6  19  239.58   17.40
  -3   6  19  238.28   19.00
  -3   6 -19  245.28   13.20
  -3  -6 -19  242.18   16.40
  -3  -6  19  225.78   20.50
  -3   6 -19  214.78   10.90
  -3  -6 -19  267.77   16.00
   3  -6 -19  251.47   16.20
  -4  -6 -19   33.60   15.20
  -4  -6 -19   24.60   12.80
  -4   6 -19   36.60   13.60
   4   6 -19   31.20   12.40
  -4   6  19   28.70   18.00
  -4  -6 -19   22.30   15.50
  -4  -6  19   25.10   17.40
  -4   6  19   20.80   14.30
  -4   6 -19   17.80   13.40
  -4   6 -19   24.90   11.50
  -4  -6  19   23.30   11.80
   4  -6 -19   24.40   15.40
   5   6 -19   50.29   13.30
  -5  -6  19   45.40   12.30
  -5  -6 -19   43.50   13.60
  -5  -6 -19   51.49   15.60
  -5   6 -19   36.70   14.20
  -5   6  19   54.39   17.60
  -5  -6 -19   38.90   15.20
  -5  -6  19   48.00   15.10
   5  -6 -19   49.00   13.50
  -5   6  19   54.79   14.50
  -5   6 -19   46.70    9.90
  -5   6 -19   46.30   14.50
  -6  -6  19   -0.70   15.20
  -6   6  19   -7.10   17.30
  -6   6 -19    0.90   12.40
  -6  -6 -19   -4.60   14.50
  -6  -6 -19    5.20   16.20
  -6  -6  19   -1.40   12.90
  -6  -6 -19    3.40   18.70
   6  -6 -19   17.30   17.60
  -6   6 -19    2.20   16.20
  -6   6  19    4.20   15.00
   6   6 -19    4.70   13.80
  -6   6 -19    1.20   12.10
  -7  -6  19   -6.10   13.90
  -7   6  19    1.30   14.60
  -7   6 -19   -5.60   15.80
  -7  -6 -19   20.20   16.40
  -7  -6 -19   17.10   19.90
  -7  -6 -19    6.30   18.30
   7  -6 -19  -23.90   20.00
  -7  -6  19    7.40   15.90
   7   6 -19   -0.10   15.00
  -7   6  19   -2.40   16.20
  -7   6 -19    4.90   11.50
   1  -7 -19   10.90   12.00
  -1  -7 -19    6.50   14.30
  -1   7  19    0.90   12.10
  -1   7 -19    4.10   10.00
   1   7 -19   11.40   12.60
  -2   7 -19   39.50   13.10
  -2   7 -19   27.00    9.80
  -2  -7 -19   26.60   14.40
  -2   7 -19   38.90   15.80
   2   7 -19   44.50   10.60
  -2  -7 -19   33.80   13.40
  -2   7  19   33.50   14.50
  -2  -7  19   35.70   16.50
   2  -7 -19   43.20   12.00
  -3   7 -19   72.69   13.60
   3   7 -19   66.69   13.20
  -3   7  19   65.99   16.90
  -3   7  19   71.69   20.70
  -3   7 -19   69.29   12.70
  -3  -7 -19   75.49   16.90
  -3  -7 -19   59.19   15.60
  -3  -7  19   66.09   17.60
  -3   7 -19   69.29   10.60
   3  -7 -19   69.99   15.00
  -4  -7 -19  155.38   12.00
  -4   7 -19  158.98   14.40
   4   7 -19  168.18   13.30
  -4   7  19  150.78   16.60
  -4  -7 -19  140.49   17.20
  -4   7  19  166.88   17.30
  -4   7 -19  160.28   11.60
  -4   7 -19  154.48   12.90
  -4  -7  19  160.28   18.70
   4  -7 -19  151.78   15.90
  -4  -7 -19  161.78   15.30
   5   7 -19   16.30   13.40
  -5  -7 -19   11.30   12.10
  -5   7  19    8.60   15.30
  -5   7 -19   15.90   12.40
  -5  -7  19   22.80   12.70
  -5  -7 -19   17.30   15.50
  -5  -7  19   18.40   14.90
   5  -7 -19   20.80   16.10
  -5   7  19   16.50   14.60
  -5   7 -19   14.30   10.40
  -5   7 -19   13.20   12.40
  -5  -7 -19   12.50   15.70
  -6  -7 -19  177.78   20.20
  -6   7  19  164.68   18.80
  -6   7 -19  200.38   16.80
  -6  -7 -19  185.58   16.40
  -6  -7 -19  143.59   19.40
   6  -7 -19  175.78   15.40
  -6  -7  19  133.09   16.30
  -6   7 -19  176.88   17.40
  -6   7  19  146.79   17.00
  -6   7 -19  143.99   13.50
   6   7 -19  169.38   14.90
  -6  -7  19  174.58   14.10
  -7   7  19   15.80   19.10
  -7  -7 -19   40.60   20.20
  -7   7 -19   39.20   17.90
  -7  -7  19   13.90   17.10
  -7  -7 -19   19.10   17.10
   7  -7 -19   22.30   19.80
  -7  -7 -19   28.10   18.50
  -7  -7  19   15.90   16.70
   7   7 -19   29.10   15.00
  -7   7  19   20.70   17.20
  -7   7 -19   14.40   12.50
   0  -8 -19   71.99   16.20
   0   8 -19   76.89   10.50
   0   8  19   79.19   13.90
   1  -8 -19  377.66   15.40
  -1   8 -19  371.86   11.90
  -1  -8 -19  362.36   15.60
  -1   8  19  383.06   16.70
  -1   8 -19  365.46   11.40
   1   8 -19  375.06   13.90
  -1  -8 -19  360.76   13.20
  -2   8 -19   29.00   13.70
  -2   8 -19   17.20   10.00
  -2  -8 -19   24.30   16.70
  -2   8 -19   23.90   15.70
   2   8 -19   22.10   10.70
  -2  -8 -19   24.70   13.40
   2  -8 -19   16.30   14.00
  -2   8  19   20.60   14.50
  -2  -8  19   31.00   17.20
  -3   8 -19  169.78   14.30
   3   8 -19  153.08   13.50
  -3  -8 -19  164.18   17.60
  -3   8  19  160.18   17.00
  -3   8  19  168.28   20.90
  -3   8 -19  161.78   13.80
  -3  -8 -19  143.79   14.50
   3  -8 -19  151.78   15.00
  -3  -8  19  140.59   17.40
  -3   8 -19  157.38   10.90
  -4  -8 -19   15.50   13.20
  -4   8 -19   20.30   11.90
   4   8 -19   16.20   13.20
  -4   8  19   27.40   20.30
  -4  -8 -19   20.20   17.50
  -4   8  19   21.00   15.70
  -4   8 -19   24.00   12.40
  -4  -8 -19   17.90   13.70
  -4   8 -19   23.10   11.40
   4  -8 -19   23.80   15.10
  -4  -8  19   25.30   16.20
  -5   8  19   30.70   15.20
  -5   8 -19   38.20   12.90
  -5  -8 -19   38.30   16.00
  -5  -8 -19   38.80   18.10
   5  -8 -19   22.20   16.80
  -5  -8  19   34.80   15.60
  -5   8  19   32.30   15.90
  -5   8 -19   21.40   12.80
  -5  -8 -19   31.00   17.80
  -5   8 -19   32.80   14.90
   5   8 -19   33.10   13.70
  -6   8  19    8.50   18.80
  -6   8 -19    2.50   14.00
  -6  -8 -19    0.20   15.80
   6  -8 -19   21.10   18.00
  -6   8 -19    4.00   17.00
  -6  -8 -19    9.90   18.90
  -6  -8  19   10.80   15.60
  -6   8  19   13.00   16.90
  -6   8 -19   10.00   13.60
   6   8 -19   10.70   14.10
  -6  -8 -19    8.70   19.00
  -1   9 -19  127.99   13.00
  -1  -9 -19  118.39   14.00
  -1   9  19  111.69   15.90
  -1   9 -19  123.59   10.70
   1  -9 -19   95.69   14.00
   1   9 -19  110.09   13.90
  -1  -9 -19  116.89   13.10
  -2   9 -19   68.89   13.80
  -2  -9 -19   55.09   16.20
  -2   9 -19   74.09   10.50
  -2   9 -19   66.69   14.70
   2   9 -19   56.89   13.40
   2  -9 -19   59.89   11.20
  -2  -9 -19   58.49   12.70
  -2  -9  19   48.50   16.00
  -2   9  19   48.70   16.80
  -3   9 -19  162.48   15.00
  -3  -9 -19  158.18   18.10
   3   9 -19  143.29   13.80
  -3   9  19  175.18   17.90
  -3   9 -19  159.88   14.80
  -3   9  19  146.69   19.60
   3  -9 -19  167.48   14.50
  -3  -9 -19  153.08   14.70
  -3  -9  19  157.78   17.80
  -3   9 -19  164.28   11.20
  -4  -9 -19  145.29   14.50
   4   9 -19  143.99   14.10
  -4   9 -19  170.48   13.30
  -4   9  19  164.18   21.30
  -4  -9 -19  157.58   20.40
  -4   9  19  154.48   17.00
  -4   9 -19  143.89   13.80
   4  -9 -19  149.39   15.80
  -4   9 -19  167.58   14.10
  -4  -9 -19  132.09   17.00
  -4  -9  19  154.08   16.50
  -5   9  19    7.30   16.40
  -5   9 -19    3.40   13.40
  -5  -9 -19    5.00   15.80
  -5  -9 -19   11.40   20.10
   5  -9 -19   14.70   16.30
  -5   9  19    0.30   16.20
  -5  -9 -19   -8.40   18.00
  -5   9 -19   11.50   13.30
  -5  -9  19    0.30   15.40
  -5   9 -19    9.20   15.20
   5   9 -19    5.70   15.90
  -6   9  19  104.89   20.60
  -6   9 -19   77.19   18.50
  -6  -9 -19  101.09   18.60
   6  -9 -19  103.29   15.10
  -6   9 -19   86.39   17.50
  -6  -9 -19   82.09   24.10
  -6  -9 -19   56.69   17.60
  -6  -9  19   52.89   14.50
  -6   9  19   62.09   16.00
  -6   9 -19   82.39   12.80
   6   9 -19  102.89   14.70
   0  10 -19   38.20   12.50
   0  10  19   41.80   14.50
   0  10 -19   34.60   13.10
   0 -10 -19   32.70   13.90
  -1  10 -19  186.78   13.60
  -1  10  19  196.48   15.70
  -1  10 -19  180.18   13.50
   1 -10 -19  192.18   16.30
  -1 -10 -19  177.58   16.00
   1  10 -19  198.88   14.30
  -1 -10 -19  186.38   12.80
  -2 -10 -19   20.80   15.50
  -2  10 -19   17.10   13.80
  -2  10 -19   28.70   13.10
   2  10 -19   24.20   13.50
   2 -10 -19   29.20   14.50
  -2 -10 -19   30.00   13.60
  -2 -10  19   17.80   17.00
  -2  10  19   22.20   16.60
  -3 -10 -19   89.79   14.00
  -3 -10 -19   87.69   18.60
  -3  10 -19   88.49   12.40
   3  10 -19   87.69   14.10
  -3  10  19   89.19   17.90
  -3  10 -19  102.19   14.60
  -3  10  19   80.99   19.70
   3 -10 -19   95.49   14.40
  -3 -10 -19   83.19   13.00
  -3  10 -19   89.49   13.20
  -3 -10  19   88.79   17.90
   4  10 -19   34.80   14.10
  -4 -10 -19   37.90   15.20
  -4 -10 -19   31.70   20.60
  -4  10 -19   37.90   15.70
  -4  10  19   24.00   21.10
  -4  10 -19   37.30   11.50
  -4  10  19   22.60   15.10
   4 -10 -19   35.50   12.60
  -4  10 -19   39.00   13.90
  -4 -10 -19   28.60   16.70
  -4 -10  19   38.80   14.50
  -5 -10 -19    6.10   23.50
  -5  10  19   24.70   20.90
  -5  10 -19   29.20   14.60
  -5  10 -19   10.50   12.70
  -5 -10 -19    8.00   18.70
   5 -10 -19   14.10   16.10
  -5  10  19    6.40   15.30
  -5  10 -19    9.90   12.40
  -5 -10 -19    9.60   15.90
  -5 -10  19    6.80   14.00
   5  10 -19   -0.90   16.50
  -6  10  19   16.60   20.90
  -6 -10 -19    6.10   28.40
  -6  10 -19   16.50   18.90
   6 -10 -19  -11.50   18.10
  -6 -10 -19   -8.30   17.20
  -6  10  19    5.90   18.60
  -6 -10 -19   -2.70   25.80
  -6 -10  19    4.00   16.70
  -6  10 -19    3.10   13.20
   6  10 -19   -7.30   16.60
  -6  10 -19    9.80   13.60
   1  11 -19  229.98   13.60
  -1  11 -19  273.27   14.20
  -1  11 -19  287.47   14.30
   1 -11 -19  271.87   14.80
  -1  11  19  283.07   16.10
  -1 -11 -19  245.48   17.20
   1  11 -19  264.57   15.20
  -1 -11 -19  269.67   13.70
  -2  11  19   16.30   16.60
  -2  11 -19   31.20   13.80
  -2  11 -19    9.10   13.20
   2  11 -19   13.00   13.90
   2 -11 -19   21.80   14.00
  -2 -11 -19   17.20   15.70
  -2 -11 -19   14.80   13.70
  -2 -11  19   20.20   18.10
  -3 -11 -19   72.09   15.90
  -3  11 -19   64.19   12.70
   3  11 -19   59.69   14.40
  -3  11  19   66.39   19.30
  -3  11 -19   77.89   13.10
   3 -11 -19   56.89   15.10
  -3  11  19   71.39   18.80
  -3  11 -19   77.29   13.90
  -3 -11 -19   66.49   13.50
  -3 -11  19   71.69   18.00
  -3 -11 -19   60.89   17.90
   4  11 -19   92.49   14.30
  -4  11 -19  115.19   14.60
  -4 -11 -19  110.19   20.00
  -4  11  19  117.79   21.60
  -4  11 -19  113.59   15.00
   4 -11 -19   83.79   15.80
  -4  11  19  114.99   19.20
  -4  11 -19   93.49   15.40
  -4 -11 -19   97.19   17.40
  -4 -11  19  106.19   17.60
  -4 -11 -19   53.69   22.70
  -5  11 -19  123.69   13.50
  -5  11  19   86.09   18.70
  -5  11 -19  103.59   19.10
   5 -11 -19   95.89   17.30
  -5  11  19   83.59   17.10
  -5  11 -19  104.49   13.40
  -5 -11 -19   72.19   17.30
  -5 -11  19   81.79   15.70
   5  11 -19   92.69   17.20
   0  12 -19   25.60   12.90
   0  12 -19   32.40   13.80
   0 -12 -19   29.90   15.50
   1  12 -19   41.30   13.10
  -1  12  19   64.69   18.00
  -1  12 -19   55.09   13.80
  -1  12 -19   51.89   13.70
   1 -12 -19   48.30   14.30
  -1 -12 -19   39.60   15.80
   1  12 -19   39.20   14.70
   2  12 -19   17.40   14.80
  -2  12 -19   38.80   13.90
  -2  12  19   36.80   17.20
  -2  12 -19   32.60   11.70
   2  12 -19   27.10   14.60
   2 -12 -19   32.10   14.60
  -2 -12 -19   30.70   17.60
  -2 -12 -19   24.70   12.40
  -2 -12  19   30.90   16.00
  -3 -12 -19   51.39   20.60
  -3  12 -19   45.50   12.50
   3  12 -19   45.80   14.80
  -3  12 -19   56.19   16.00
   3 -12 -19   51.79   15.60
  -3  12 -19   34.90   14.20
  -3  12  19   33.30   19.00
  -3 -12 -19   44.30   21.60
  -3 -12 -19   47.30   15.80
  -3 -12  19   50.79   17.60
   4  12 -19    5.90   16.40
  -4  12 -19   15.00   15.70
  -4  12 -19   10.20   14.90
  -4  12 -19    5.80   17.10
  -4  12  19   16.70   20.70
   4 -12 -19   -1.80   16.00
  -4  12  19    5.20   16.70
  -4 -12 -19    0.60   15.60
  -4 -12  19    9.20   14.30
  -5  12 -19   10.60   16.60
   1  13 -19   73.99   16.10
  -1  13 -19   71.69   14.60
  -1  13 -19   79.29   14.60
   1 -13 -19   64.29   14.50
  -1  13  19   84.59   18.70
  -1 -13 -19   57.59   18.10
   1  13 -19   80.79   18.00
  -2 -13 -19   12.20   19.50
   2  13 -19    9.60   13.50
  -2  13 -19   14.40   15.20
  -2  13  19   24.60   17.10
   2 -13 -19   33.10   14.80
   2  13 -19   19.50   15.40
  -2 -13 -19   14.40   19.20
  -2 -13 -19   15.00   15.30
  -2 -13  19   22.10   18.90
  -2  13 -19   20.20   15.10
   3  13 -19   54.29   15.80
  -3  13 -19   54.19   13.70
   3  13 -19   60.99   17.20
  -3  13 -19   54.89   15.10
   3 -13 -19   56.79   16.20
  -3  13 -19   77.59   15.20
  -3  13  19   88.29   19.20
  -3 -13 -19   52.99   15.50
  -3 -13  19   56.29   18.20
   4  13 -19    9.60   13.90
  -4  13 -19   26.40   15.60
   4  13 -19   20.10   17.30
  -4  13 -19   31.30   17.60
   4 -13 -19    3.80   16.90
  -4  13  19   22.40   18.20
  -4  13  19   11.70   21.50
  -4  13 -19   20.90   14.60
  -4 -13 -19   13.10   16.30
  -4 -13  19   18.30   17.70
   0  14 -19   10.10   15.50
   0  14 -19    5.00   14.40
   0 -14 -19    3.50   18.20
   1  14 -19   14.80   16.30
  -1  14  19   15.80   16.10
  -1  14 -19   11.80   14.90
  -1 -14 -19   13.70   19.90
   1 -14 -19   10.70   17.00
  -1  14 -19   23.10   15.00
   1  14 -19   11.40   15.60
   2  14 -19    1.80   15.80
  -2  14 -19    3.80   16.10
   2 -14 -19   10.50   17.70
   2  14 -19    3.70   15.50
  -2  14  19   13.40   20.20
  -2  14 -19    1.10   15.40
  -2 -14 -19    0.00   16.10
  -2 -14  19   -0.90   17.00
   0   0 -20   16.30   11.90
  -1   0 -20  287.57   12.60
  -1   0  20  281.17   12.60
   1   0 -20  300.07   14.60
  -2   0  20   -1.90   12.40
   2   0 -20    4.60   11.50
  -2   0 -20    7.20   13.40
   3   0 -20    0.90   10.90
  -3   0  20   16.00   13.40
  -3   0 -20    5.40   25.90
  -3   0 -20    0.60   14.50
  -3   0 -20    6.20   17.80
  -4   0 -20   34.80    9.70
   4   0 -20   41.60   13.40
  -4   0  20   44.50   13.20
  -4   0 -20   28.30   11.90
  -4   0  20   38.90   18.60
  -5   0 -20   91.99   12.30
  -5   0 -20   90.09   16.20
  -5   0  20  103.19   13.10
   5   0 -20   79.39   13.60
  -6   0 -20   44.00   12.40
  -6   0  20   33.50   13.50
   6   0 -20   28.30   12.10
  -6   0 -20   36.10   17.00
  -7   0 -20   30.90   19.90
  -7   0 -20   54.39   14.20
  -7   0  20   57.69   12.30
   7   0 -20   39.30   12.80
  -1  -1 -20   52.59   14.90
  -1   1  20   56.59   12.10
  -1   1 -20   56.89   10.90
   1  -1 -20   58.39   12.00
   1   1 -20   63.49   13.40
  -2  -1 -20  275.77   14.90
   2  -1 -20  283.77   15.10
   2   1 -20  263.17   12.40
  -2  -1  20  290.77   12.50
  -2   1 -20  280.07   14.10
  -2   1  20  277.37   13.50
  -3   1 -20   34.70   14.00
   3  -1 -20   31.30   11.30
   3   1 -20   21.60   10.80
  -3   1  20   29.80   14.10
  -3  -1 -20   24.80   23.00
  -3  -1 -20   19.60   12.50
  -3  -1  20   25.80   11.10
  -3   1 -20   27.40   19.50
  -3  -1 -20   26.60   17.00
  -4  -1 -20  711.63   17.70
   4  -1 -20  663.23   13.90
  -4  -1 -20  729.73   14.20
  -4   1 -20  706.53   12.30
   4   1 -20  672.43   13.40
  -4  -1  20  718.33   14.70
  -4   1 -20  685.13   14.30
  -4  -1  20  699.43   28.50
  -4   1  20  731.03   24.10
  -4   1  20  685.53   15.80
  -4   1 -20  673.23   16.80
  -5  -1  20  327.17   13.60
  -5   1 -20  310.77   11.10
  -5  -1 -20  339.67   12.90
  -5  -1 -20  320.37   15.20
  -5   1  20  328.27   14.20
  -5   1 -20  314.37   16.50
   5  -1 -20  291.47   15.40
  -5   1  20  300.07   17.00
   5   1 -20  309.47   14.30
  -6   1  20  411.66   18.40
  -6   1 -20  480.15   12.90
  -6  -1 -20  465.45   15.00
  -6   1 -20  507.45   18.80
  -6   1  20  510.45   15.60
  -6  -1 -20  540.85   20.20
   6  -1 -20  475.65   13.90
   6   1 -20  464.75   13.20
  -6  -1  20  494.95   14.50
  -7   1 -20   86.69   14.90
  -7  -1 -20   67.79   15.00
  -7   1 -20   82.69   16.20
  -7   1  20   61.79   15.00
   7  -1 -20   64.99   13.10
   7   1 -20   76.59   12.60
  -7  -1  20   45.20   11.60
  -7  -1 -20   64.59   16.30
   0   2 -20   22.30   10.70
   0  -2 -20   14.50   15.20
  -1   2 -20   31.40   10.30
   1  -2 -20   32.80   15.00
   1   2 -20   39.10   13.10
  -1   2  20   44.00   14.80
  -1  -2 -20   44.20   14.80
  -2  -2 -20   -2.90   14.40
   2  -2 -20    2.30   11.80
   2   2 -20    9.40   12.90
  -2   2  20    1.80   12.90
  -2  -2  20   10.90   13.70
  -2   2 -20   13.20   12.90
  -3   2 -20  138.39   10.20
  -3   2  20  126.79   12.60
   3  -2 -20  133.69   12.10
  -3   2 -20  128.49   13.80
  -3  -2  20  134.09   13.30
   3   2 -20  139.39   13.60
  -3  -2 -20  131.79   15.20
  -3  -2 -20  137.19   22.10
  -3   2 -20  142.49   19.70
  -4  -2 -20    4.40    9.50
  -4   2 -20    9.40   10.10
   4   2 -20   10.20   12.90
  -4  -2  20    3.70   10.00
  -4  -2 -20    8.10   18.20
  -4  -2  20    5.50   22.20
  -4   2 -20   13.20   14.80
  -4   2  20   -1.30   14.30
  -4  -2 -20    3.80   15.60
  -4   2  20    8.60   18.10
  -4   2 -20    7.40   11.60
   4  -2 -20   17.10   11.90
  -5   2 -20    0.00   12.20
  -5  -2 -20   14.90   16.30
  -5  -2 -20    8.00   11.70
  -5   2 -20    7.70   10.20
  -5  -2  20    3.60   10.10
  -5   2  20   11.20   11.60
   5  -2 -20   11.00   12.10
  -5   2  20    3.10   16.00
  -5   2 -20    0.40   10.40
   5   2 -20   20.70   13.20
  -6  -2  20    6.30   13.00
  -6  -2 -20   11.50   12.80
  -6   2 -20   -7.40   13.60
  -6  -2 -20   -0.20   17.20
  -6   2  20   12.00   11.60
  -6   2 -20   13.20   14.00
   6  -2 -20   17.80   15.20
   6   2 -20    7.80   11.00
  -6   2  20    6.00   14.10
  -6   2 -20    5.90   11.10
  -7   2 -20    4.90   11.20
  -7   2 -20   11.40   19.80
  -7   2 -20   -0.10   14.80
  -7  -2 -20    6.80   14.70
  -7   2  20   11.40   12.30
  -7  -2 -20    6.90   19.20
   7  -2 -20    6.30   13.00
   7   2 -20   13.40   14.40
  -7   2  20    9.20   13.80
  -7  -2  20    6.90   13.50
  -1   3  20  133.19   12.10
   1  -3 -20  155.58   16.20
  -1   3 -20  136.99   13.10
   1   3 -20  166.78   11.20
  -1  -3 -20  152.48   13.20
  -2  -3 -20  197.68   16.30
   2  -3 -20  187.18   16.10
  -2   3  20  213.48   17.50
   2   3 -20  186.48   11.60
  -2   3 -20  188.98   11.50
  -2  -3  20  207.88   11.90
  -3   3  20  646.24   17.90
  -3   3 -20  666.23   14.20
   3  -3 -20  623.24   17.20
  -3   3 -20  617.84   13.30
  -3  -3 -20  658.03   15.10
   3   3 -20  643.74   13.10
  -3  -3  20  674.33   12.30
  -3   3 -20  692.03   22.90
  -3  -3 -20  656.03   22.30
  -4  -3 -20  276.57   12.90
  -4   3 -20  284.07   13.70
   4   3 -20  256.47   13.90
  -4  -3 -20  255.07   18.30
  -4  -3 -20  268.67   16.90
  -4  -3  20  258.87   22.40
  -4   3  20  273.47   15.70
  -4   3 -20  264.07   12.50
  -4   3  20  283.87   21.30
  -4   3 -20  281.07   13.90
  -4  -3  20  282.77   11.10
   4  -3 -20  251.07   15.70
  -5  -3 -20   17.00   12.00
  -5   3 -20   25.10   10.40
  -5   3 -20   21.30   12.60
  -5   3  20   10.30   14.90
  -5  -3  20   11.00   17.30
   5  -3 -20   21.30   12.50
  -5   3  20   19.40   15.80
  -5  -3 -20    8.50   15.90
  -5  -3  20   16.00   12.30
  -5   3 -20   17.00   10.90
   5   3 -20    9.10   13.00
  -6  -3 -20  710.93   20.60
  -6   3 -20  668.03   18.90
  -6   3 -20  736.73   14.30
  -6  -3 -20  724.43   15.80
  -6  -3  20  706.13   15.30
  -6   3  20  640.84   17.20
   6  -3 -20  616.14   18.20
   6   3 -20  657.43   16.20
  -6   3  20  624.64   19.80
  -6   3 -20  566.14   14.80
  -7  -3  20  145.99   12.50
  -7  -3 -20  154.78   20.00
  -7   3 -20  182.48   13.30
  -7  -3 -20  169.88   15.10
  -7   3  20  126.19   16.70
  -7   3 -20  140.89   20.40
   7  -3 -20  117.99   17.90
   7   3 -20  148.29   13.20
  -7   3  20   81.59   16.90
  -7   3 -20  111.89   12.10
   0   4 -20  163.38   10.90
   0  -4 -20  168.48   14.80
  -1   4  20   15.80   11.70
   1  -4 -20   10.70   15.70
  -1   4 -20   10.90   10.30
  -1  -4 -20   20.10   15.30
   1   4 -20   19.10   13.10
   2  -4 -20   32.20   15.60
  -2   4  20   32.90   17.10
   2   4 -20   42.70   12.60
  -2   4 -20   33.90   10.30
  -2  -4 -20   40.30   15.40
  -3   4 -20   11.80   12.50
   3  -4 -20    9.40   12.80
  -3  -4 -20   19.10   15.20
   3   4 -20   12.20    9.90
  -3   4 -20   18.90   10.30
  -3   4  20   13.90   29.30
  -3   4 -20   14.10   16.80
  -3  -4 -20   13.40   17.70
  -3  -4  20   18.40    9.60
  -3   4  20   18.90   13.40
  -3  -4  20   16.10   24.50
  -4  -4 -20   34.60   13.60
  -4   4 -20   28.50   10.70
   4   4 -20   41.60   13.10
  -4  -4 -20   27.90   15.30
  -4  -4  20   29.30   10.00
  -4  -4 -20   36.10   17.90
  -4   4  20   37.10   13.00
  -4  -4  20   30.50   20.80
  -4   4  20   32.50   17.20
  -4   4 -20   26.00   11.40
  -4   4 -20   37.20   11.60
   4  -4 -20   32.30   16.00
   5   4 -20   -8.80   12.80
  -5  -4 -20    3.20   11.80
  -5   4 -20    2.80   11.30
  -5   4  20   27.40   15.70
  -5   4 -20   10.30   12.10
  -5  -4 -20    3.60   18.20
  -5  -4  20    1.80   17.00
  -5  -4 -20   11.70   15.70
   5  -4 -20    3.00   13.30
  -5   4  20    5.00   14.30
  -5   4 -20    2.40   11.10
  -5  -4  20   -6.20   12.10
  -6   4 -20    5.70   14.10
  -6   4 -20    4.50   11.90
  -6  -4 -20   12.80   12.50
  -6   4  20   -3.20   16.40
  -6  -4  20    5.90   15.70
  -6  -4  20    8.90   12.80
   6  -4 -20    4.70   14.10
  -6  -4 -20  -10.20   16.80
  -6   4  20   -9.40   15.60
   6   4 -20    7.30   13.60
  -6   4 -20   -1.60   11.60
  -7   4 -20   26.20   19.50
  -7   4  20    2.00   16.90
  -7   4 -20    4.50   12.90
  -7  -4 -20    4.80   14.30
  -7  -4  20    9.30   13.70
  -7  -4  20    3.20   16.80
   7  -4 -20    4.60   14.80
   7   4 -20    8.40   14.90
  -7   4  20   -3.00   16.90
  -7   4 -20   13.30   13.10
  -7  -4 -20   -4.90   21.60
   1  -5 -20  199.38   16.00
  -1   5 -20  190.18   10.90
  -1  -5 -20  210.98   16.30
   1   5 -20  202.68   13.00
  -1   5  20  196.48   13.20
   2  -5 -20   41.90   15.30
  -2   5  20   40.00   16.80
   2   5 -20   41.80   11.00
  -2  -5 -20   31.30   16.00
  -2  -5 -20   33.70   16.10
  -2   5 -20   41.90   10.30
  -3   5 -20    2.00   13.20
   3   5 -20   10.30   13.00
  -3   5 -20   13.10   10.20
  -3   5  20   20.40   25.10
  -3   5 -20   10.00   15.50
  -3  -5 -20    6.90   16.50
  -3  -5  20   11.60   21.80
  -3   5  20   41.80   18.20
  -3  -5 -20   19.70   15.60
   3  -5 -20   18.30   12.60
  -4   5 -20  448.16   13.20
  -4  -5 -20  473.65   13.50
  -4   5 -20  462.85   14.80
  -4  -5 -20  500.55   17.60
   4   5 -20  484.05   12.50
  -4   5  20  444.16   18.50
  -4  -5 -20  436.66   19.90
  -4   5  20  466.25   22.20
  -4  -5  20  448.96   23.90
  -4   5 -20  461.45   15.80
  -4  -5  20  453.65   13.70
   4  -5 -20  450.75   14.50
   5   5 -20  283.27   13.80
  -5  -5 -20  301.17   15.00
  -5   5 -20  309.87   15.00
  -5  -5 -20  311.97   17.70
  -5   5  20  296.07   17.40
  -5  -5  20  286.17   13.60
  -5  -5 -20  262.17   19.20
  -5  -5  20  266.47   18.80
  -5   5 -20  307.97   13.50
   5  -5 -20  280.77   14.60
  -5   5  20  279.97   18.50
  -5   5 -20  281.27   13.20
  -6  -5  20   38.30   13.70
  -6   5 -20   70.09   12.30
  -6  -5 -20   55.79   15.40
  -6   5  20   45.80   17.00
  -6   5 -20   49.60   13.90
  -6  -5 -20   35.00   17.00
  -6  -5 -20   52.89   17.80
  -6  -5  20   37.70   17.60
   6  -5 -20   40.50   15.10
  -6   5  20   39.40   16.00
  -6   5 -20   46.00   12.40
   6   5 -20   59.79   13.90
  -7   5 -20    8.30   15.90
  -7   5  20   18.60   17.80
  -7   5 -20   43.80   16.40
  -7  -5 -20    7.90   14.80
  -7  -5 -20    8.40   21.60
  -7  -5  20    8.60   16.80
   7  -5 -20   23.90   15.70
  -7  -5 -20   26.70   21.20
   7   5 -20   -1.90   15.50
  -7   5  20   18.50   17.20
  -7   5 -20   11.60   13.60
  -7  -5  20   27.80   14.20
   0   6 -20   19.10   12.80
   0   6  20   20.90   13.80
   0  -6 -20   18.20   15.00
   1  -6 -20   72.49   12.70
  -1  -6 -20   83.49   16.30
  -1   6 -20   64.09   12.50
   1   6 -20   67.29   10.90
  -1   6  20   73.69   15.60
  -2   6 -20   34.20   10.80
   2  -6 -20   42.00   12.30
  -2   6 -20   51.59   12.40
  -2   6  20   60.29   18.00
   2   6 -20   49.40   13.00
  -2  -6 -20   49.30   17.60
  -2  -6 -20   44.50   13.80
  -3   6 -20   35.90   13.60
   3   6 -20   27.80   12.90
  -3   6  20   29.50   23.00
  -3   6 -20   45.50   13.30
  -3   6 -20   31.70   14.30
  -3  -6 -20   41.50   14.80
  -3   6  20   35.80   20.40
  -3  -6 -20   44.70   15.40
  -3  -6  20   26.60   21.30
   3  -6 -20   27.30   12.80
  -4  -6 -20    9.70   11.90
  -4   6 -20    3.60   13.80
   4   6 -20   10.40   12.70
  -4   6 -20   13.40   14.00
  -4   6  20    3.30   18.00
  -4   6  20    2.70   18.10
  -4  -6 -20    8.60   15.50
  -4   6 -20   -3.00   12.00
  -4  -6  20    1.80   19.40
   4  -6 -20    9.80   12.70
  -4  -6 -20   23.10   16.30
   5   6 -20   16.70   13.10
  -5   6 -20    4.40   15.40
  -5  -6 -20    8.80   16.50
  -5  -6 -20   -0.80   12.40
  -5   6 -20   -5.30   12.40
  -5   6  20   14.00   14.60
  -5  -6 -20    9.80   17.80
  -5  -6  20   -2.30   15.10
  -5   6  20   -3.60   17.30
   5  -6 -20    6.70   16.90
  -5   6 -20   -1.50   12.50
  -5  -6  20    0.60   12.30
  -6  -6  20   18.80   13.30
  -6   6  20   29.40   14.60
  -6  -6 -20    9.50   17.00
  -6   6 -20   23.10   15.40
  -6  -6 -20   19.70   15.50
  -6   6 -20    5.40   13.90
  -6  -6 -20   11.80   17.10
  -6  -6  20   14.30   16.10
   6  -6 -20   21.60   15.30
  -6   6  20   12.20   16.80
  -6   6 -20   15.30   13.00
   6   6 -20   29.20   14.30
  -7   6 -20   24.00   19.30
  -7   6  20    3.70   15.40
  -7   6 -20   -4.00   17.20
  -7  -6 -20   13.30   20.50
  -7  -6 -20   20.70   17.20
  -7  -6  20    5.50   14.50
  -7  -6 -20    2.10   20.90
   7  -6 -20  -20.10   20.60
  -7  -6  20    4.80   17.10
   7   6 -20   10.30   15.30
  -7   6  20   -1.60   18.20
  -7   6 -20    6.30   13.80
   1  -7 -20   27.60   14.80
  -1  -7 -20   25.10   15.00
  -1   7 -20   14.60   10.20
  -1   7  20   16.00   12.50
   1   7 -20   12.90   13.00
  -2   7 -20   72.89   13.90
  -2   7 -20   80.09   10.50
  -2   7  20   85.89   17.70
  -2  -7 -20   88.09   17.80
   2   7 -20   97.19   13.20
  -2  -7 -20   80.69   13.70
   2  -7 -20   76.39   15.10
  -2  -7  20   84.69   17.90
  -3   7 -20   52.09   11.50
   3   7 -20   51.29   13.30
  -3   7  20   53.29   23.30
  -3   7 -20   51.69   10.40
  -3   7 -20   55.19   15.10
  -3  -7 -20   44.30   17.50
  -3  -7 -20   50.69   15.10
  -3   7  20   60.69   21.40
  -3  -7  20   43.20   22.10
   3  -7 -20   50.09   15.40
  -4  -7 -20    6.10   13.50
  -4   7 -20   12.30   14.60
   4   7 -20    6.10   13.00
  -4   7 -20   15.80   14.20
  -4   7  20    7.30   19.90
  -4   7  20    6.50   16.50
  -4   7 -20    0.60   12.60
  -4  -7 -20    2.10   15.60
  -4  -7  20    7.00   16.80
   4  -7 -20   12.60   15.70
  -4  -7 -20    6.20   15.70
   5   7 -20   28.90   13.60
  -5   7 -20   41.00   15.50
  -5  -7 -20   51.19   12.40
  -5   7 -20   44.80   15.60
  -5   7  20   68.19   18.90
  -5  -7 -20   38.50   16.00
  -5  -7  20   46.80   15.90
   5  -7 -20   39.70   13.70
  -5   7  20   40.20   16.90
  -5   7 -20   47.20   11.40
  -5  -7 -20   58.29   19.00
  -6  -7 -20  117.29   20.10
  -6   7  20  129.09   19.30
  -6   7 -20  116.79   16.90
  -6  -7 -20  138.29   16.40
  -6  -7 -20  104.99   17.70
   6  -7 -20   95.99   19.10
  -6  -7  20   89.29   16.60
  -6   7  20  119.39   15.80
  -6   7 -20  101.89   12.20
   6   7 -20  108.89   15.30
  -6   7 -20  113.19   17.50
  -6  -7  20  100.09   14.20
   0  -8 -20   -2.00   14.50
   0   8 -20    0.60   12.90
   0   8  20    6.70   14.50
   1  -8 -20  175.18   15.20
  -1   8 -20  172.98   11.30
  -1  -8 -20  184.28   15.10
  -1   8 -20  202.08   13.20
  -1   8  20  191.88   13.60
   1   8 -20  184.88   14.40
  -2   8 -20   74.49   11.40
  -2   8 -20   76.79   11.10
  -2   8  20   76.59   18.20
  -2  -8 -20   75.69   15.20
   2   8 -20   70.09   12.90
   2  -8 -20   81.39   15.40
  -2  -8 -20   79.69   13.70
  -2  -8  20   73.19   18.10
  -3   8 -20   42.70   14.60
   3   8 -20   53.49   13.10
  -3  -8 -20   42.80   17.40
  -3   8  20   44.90   21.40
  -3   8 -20   47.10   14.40
  -3   8 -20   58.29   11.00
  -3   8  20   60.89   16.60
  -3  -8 -20   49.20   13.90
   3  -8 -20   52.59   14.90
  -3  -8  20   50.99   20.20
  -4  -8 -20    2.30   13.80
  -4   8 -20    2.10   15.10
   4   8 -20   10.10   13.40
  -4   8 -20    3.50   14.50
  -4   8  20   16.00   17.30
  -4  -8 -20   -1.70   18.00
  -4   8  20    0.40   17.10
  -4   8 -20   -1.10   13.20
  -4  -8 -20   -3.00   16.30
   4  -8 -20   14.00   16.10
  -4  -8  20    6.50   18.70
   5   8 -20   37.70   14.40
  -5   8 -20   46.30   15.50
  -5  -8 -20   40.10   16.50
  -5   8 -20   43.60   16.00
  -5   8  20   34.00   19.80
   5  -8 -20   33.10   13.90
  -5  -8 -20   29.40   18.40
  -5   8  20   37.40   17.40
  -5  -8 -20   39.70   19.00
  -5  -8  20   39.00   16.50
  -5   8 -20   43.80   13.40
  -6   8  20    7.40   19.90
  -6   8 -20    4.70   17.60
  -6  -8 -20    3.30   18.40
   6  -8 -20   13.90   15.20
  -6  -8 -20    9.10   17.20
  -6  -8  20   -3.00   16.30
  -6   8  20   10.70   17.80
  -6   8 -20    3.50   12.00
  -6  -8 -20   12.50   22.30
   6   8 -20    5.80   14.80
  -6   8 -20   19.60   17.30
  -1   9 -20   10.00   13.10
  -1  -9 -20    8.70   14.00
  -1   9 -20    2.40   10.50
   1  -9 -20   16.00   14.20
   1   9 -20   -3.70   13.50
  -1   9  20    5.30   15.40
  -2   9 -20    8.00   10.50
  -2   9 -20    6.00   11.40
  -2   9  20   -2.40   16.70
  -2  -9 -20    2.80   16.50
   2   9 -20    8.40   11.00
   2  -9 -20   -2.50   14.50
  -2  -9 -20    4.50   14.00
  -2  -9  20    9.30   18.70
  -3   9 -20   10.70   12.30
  -3  -9 -20   17.30   17.10
   3   9 -20   13.20   13.60
  -3   9  20    1.70   19.60
  -3   9 -20    9.60   14.10
  -3   9 -20    3.70   13.30
   3  -9 -20    0.90   15.10
  -3   9  20   26.70   18.90
  -3  -9 -20    7.60   13.70
  -3  -9  20   12.00   18.30
  -4  -9 -20   22.10   13.80
   4   9 -20   22.90   13.90
  -4   9 -20   24.90   15.30
  -4   9 -20   13.20   14.20
  -4  -9 -20   30.90   17.80
  -4   9  20   50.19   20.80
  -4   9  20   24.10   18.80
  -4   9 -20   16.70   13.80
   4  -9 -20   29.90   13.10
  -4  -9 -20   29.20   16.40
  -4  -9  20   16.70   16.80
  -5   9 -20   13.40   17.20
  -5  -9 -20    5.40   17.10
  -5   9  20   12.50   21.20
  -5  -9 -20    6.50   21.70
   5  -9 -20    5.30   17.30
  -5   9  20    2.10   15.70
  -5   9 -20    4.40   12.30
  -5  -9 -20    6.40   16.30
  -5  -9  20    7.40   14.00
  -5   9 -20    7.60   13.10
   5   9 -20    7.80   14.60
  -6   9  20    6.80   21.50
  -6   9 -20   -0.20   15.00
  -6   9 -20    4.80   14.50
  -6  -9 -20   -1.10   20.90
   6  -9 -20   15.50   19.20
  -6  -9 -20   21.50   24.60
  -6  -9 -20   11.00   20.10
  -6   9  20    0.70   16.60
  -6  -9  20   -3.70   17.00
  -6   9 -20    7.70   14.90
   6   9 -20    9.00   17.00
   0  10 -20  483.35   14.40
   0  10 -20  526.45   15.20
   0 -10 -20  507.55   16.30
  -1 -10 -20  197.58   16.80
  -1  10 -20  169.98   13.80
  -1  10 -20  190.38   13.80
   1 -10 -20  197.38   15.80
   1  10 -20  207.88   14.80
  -1  10  20  206.18   16.50
  -2 -10 -20    4.10   14.30
  -2  10 -20    6.10   13.40
  -2  10 -20   13.00   11.60
  -2  10  20   17.40   16.70
   2  10 -20   12.60   13.50
   2 -10 -20    4.60   14.80
  -2 -10 -20    9.40   12.90
  -2 -10  20   10.60   17.90
  -3 -10 -20  230.08   15.30
  -3 -10 -20  217.78   18.30
  -3  10 -20  233.28   16.50
   3  10 -20  230.78   15.10
  -3  10 -20  255.87   14.50
  -3  10 -20  231.78   14.70
   3 -10 -20  224.78   13.40
  -3  10  20  244.88   20.00
  -3 -10 -20  216.68   15.70
  -3 -10  20  243.98   19.70
  -4  10 -20  117.69   12.30
   4  10 -20   80.49   14.70
  -4 -10 -20   91.79   16.80
  -4 -10 -20   81.89   19.90
  -4  10 -20   97.79   13.70
  -4  10  20  115.19   22.50
  -4  10  20   82.49   20.00
  -4  10 -20   88.59   15.30
   4 -10 -20   86.39   16.60
  -4 -10 -20   86.19   17.20
  -4 -10  20   94.69   17.60
  -5 -10 -20    6.70   22.50
  -5  10 -20   18.70   18.00
  -5  10  20   -1.90   18.10
  -5 -10 -20    0.20   19.40
   5 -10 -20   17.50   17.60
  -5  10  20    2.80   16.40
  -5  10 -20    4.60   14.80
  -5 -10 -20   14.40   19.10
  -5  10 -20    6.50   16.00
  -5 -10  20    6.70   14.40
   5  10 -20   12.40   14.20
   1  11 -20   11.70   12.70
  -1  11 -20   11.10   13.50
  -1  11  20   14.10   17.60
  -1  11 -20    5.70   11.60
   1 -11 -20    5.90   14.20
  -1 -11 -20    6.20   16.10
   1  11 -20    6.40   14.20
  -2  11 -20    6.00   13.80
  -2  11  20    9.00   17.20
   2  11 -20    0.60   14.30
   2 -11 -20    1.10   14.70
  -2 -11 -20    2.80   16.10
  -2 -11 -20    9.90   13.60
  -2 -11  20    1.90   18.80
  -2  11 -20   -3.20   14.00
  -3 -11 -20    0.40   15.50
  -3  11 -20    5.50   15.10
   3  11 -20   10.30   14.40
  -3  11 -20    2.90   14.00
  -3  11 -20    4.60   13.60
   3 -11 -20    2.10   15.00
  -3  11  20   10.40   19.00
  -3 -11 -20    8.40   13.30
  -3 -11  20   -1.40   18.50
  -3 -11 -20   13.90   18.40
  -4  11 -20   18.20   14.50
   4  11 -20    9.00   14.60
  -4  11 -20   14.90   17.20
  -4 -11 -20    4.40   18.50
  -4  11  20    4.20   19.90
   4 -11 -20    1.40   13.40
  -4  11 -20   10.40   13.50
  -4  11  20   26.80   21.70
  -4 -11 -20    7.50   15.20
  -4 -11  20    9.00   17.20
  -4 -11 -20    1.90   21.00
  -5  11 -20    6.50   18.70
  -5  11  20   34.00   23.30
  -5  11 -20   -4.10   13.30
   5 -11 -20    2.30   14.50
  -5  11  20   -6.50   17.90
  -5  11 -20   12.80   16.30
  -5 -11 -20    2.40   31.90
  -5 -11 -20    0.70   19.20
  -5 -11  20    8.80   14.90
   5  11 -20   16.30   15.00
  -5 -11 -20    0.60   33.70
   0  12 -20    9.30   13.60
   0  12 -20    3.50   14.30
   0 -12 -20   17.50   16.40
   1  12 -20  269.37   15.00
  -1  12 -20  305.77   15.10
  -1  12 -20  372.86   15.70
  -1  12  20  342.17   17.50
   1 -12 -20  294.27   16.40
  -1 -12 -20  333.47   18.50
   1  12 -20  335.77   16.90
   2  12 -20  240.18   14.60
  -2  12 -20  271.37   16.30
  -2  12  20  345.47   21.80
   2  12 -20  292.67   17.10
   2 -12 -20  330.57   16.90
  -2 -12 -20  286.47   18.90
  -2  12 -20  330.27   13.70
  -2 -12 -20  308.17   16.40
  -2 -12  20  356.96   21.40
  -3 -12 -20   91.19   20.40
  -3  12 -20   89.59   15.90
   3  12 -20  112.59   17.60
  -3  12 -20  106.49   15.10
  -3  12 -20   93.69   17.70
   3 -12 -20  118.29   16.50
  -3 -12 -20   91.49   21.20
  -3 -12 -20  106.89   17.10
  -3 -12  20   82.69   19.10
  -3  12  20  112.19   19.50
   4  12 -20   12.40   17.40
  -4  12 -20    0.30   17.70
   4 -12 -20    2.70   16.90
  -4  12  20    2.80   18.70
  -4  12 -20   15.90   14.40
  -4  12  20   -2.60   21.90
  -4 -12 -20   11.40   15.90
  -4  12 -20   12.60   15.40
  -4 -12  20    7.00   17.70
   1  13 -20   -3.60   13.50
  -1  13 -20    3.20   14.40
  -1  13  20   -3.60   18.40
  -1  13 -20   -2.20   14.80
   1 -13 -20    2.50   14.60
  -1 -13 -20    2.40   18.50
   1  13 -20   17.80   17.80
  -2 -13 -20   12.00   18.50
   2  13 -20   -3.60   16.20
  -2  13 -20   -2.70   12.30
   2 -13 -20   -2.00   17.60
   2  13 -20    6.90   17.60
  -2  13  20    7.30   17.10
  -2 -13 -20    5.60   20.40
  -2  13 -20   -4.60   15.20
  -2 -13 -20   -4.70   15.20
   3  13 -20    1.90   15.80
  -3  13 -20    9.10   15.60
  -3  13 -20    0.40   16.80
   3  13 -20    6.90   17.50
   3 -13 -20   -3.40   16.30
  -3 -13 -20    6.80   17.10
  -3 -13  20    2.10   18.90
  -3  13  20   -0.30   19.50
   0  14 -20  109.69   17.00
   0  14 -20   88.89   15.60
   0 -14 -20   74.79   20.20
   1  14 -20  173.98   15.80
  -1  14 -20  150.18   17.10
  -1  14  20  174.78   18.80
  -1  14 -20  236.58   17.50
   1 -14 -20  218.38   19.50
  -1 -14 -20  150.48   23.20
   1  14 -20  171.58   20.60
   2 -14 -20   32.00   18.70
  -2 -14 -20   25.40   17.00
  -1   1 -21   75.39   14.10
  -1   1  21   67.59   15.20
   1  -1 -21   83.29   14.80
   1   1 -21   84.49   14.20
  -1  -1 -21   73.69   12.20
  -2   1  21   83.89   15.80
  -2  -1 -21   85.29   12.40
  -2  -1  21   93.99   14.50
   2  -1 -21   87.59   14.80
   2   1 -21   98.29   13.80
  -2   1 -21   66.99   13.90
  -3  -1  21   13.40   13.50
   3  -1 -21    5.60   11.40
   3   1 -21   -2.20   13.30
  -3   1  21   -1.70   14.30
  -3  -1 -21   -5.50   12.70
  -3  -1 -21    0.10    5.60
  -3   1 -21    5.10   13.40
   4  -1 -21   44.60   11.60
  -4  -1 -21   36.00   12.30
  -4   1 -21   43.90   13.20
   4   1 -21   37.90   11.00
  -4   1  21   49.90   14.10
  -4   1 -21   53.49   15.60
  -4  -1  21   37.40   13.00
  -4  -1  21   40.90   38.50
  -4   1  21   37.50   31.10
  -4  -1 -21   49.60   15.50
  -4   1 -21   39.30   13.70
  -4  -1  21   41.60   27.60
  -5  -1 -21   74.59   17.30
  -5  -1 -21   81.89   12.70
  -5   1 -21   74.79   12.80
  -5  -1  21   82.09   13.20
  -5   1 -21   71.59   13.20
  -5   1  21   80.99   14.00
   5  -1 -21   74.49   12.20
  -5   1  21   67.49   18.10
   5   1 -21   63.19   13.80
  -5   1 -21   67.09   12.60
  -6  -1  21   68.99   13.40
  -6   1 -21   56.19   13.90
  -6  -1 -21   67.39   13.30
  -6  -1 -21   61.09   18.40
  -6   1  21   51.29   14.50
   6  -1 -21   52.29   15.40
   6   1 -21   57.29   14.30
  -6   1 -21   68.69   18.00
  -6   1  21   47.80   17.50
  -7   1 -21   -0.10   20.40
  -7   1 -21    3.50   12.20
  -7  -1 -21    0.30   14.70
  -7  -1 -21   -1.90   19.80
  -7   1  21    1.80   15.40
   7  -1 -21    4.20   16.60
   7   1 -21   14.70   15.50
  -7  -1  21    9.30   14.70
  -7   1  21   -0.70   17.40
   0  -2 -21  165.88   15.40
   0   2 -21  163.48   14.30
  -1   2  21    9.10   12.60
  -1   2 -21    6.80   13.10
   1  -2 -21    5.30   12.90
   1   2 -21    5.40   13.50
  -1  -2 -21   13.00   12.50
  -2  -2 -21   11.50   12.30
   2  -2 -21   -0.10   12.30
  -2  -2  21   -2.40   11.40
   2   2 -21   -3.00   11.00
  -2   2 -21  -14.20   13.40
  -2   2  21    9.30   13.30
  -3   2 -21   32.80   13.70
  -3   2 -21   25.40   10.30
   3  -2 -21   20.30   11.90
  -3   2  21   18.30   12.50
   3   2 -21   21.50   13.00
  -3  -2 -21   30.90   15.80
  -3  -2  21   18.50   10.80
  -4  -2 -21  102.69   12.40
  -4   2 -21   96.79   10.60
   4   2 -21   95.39   13.40
  -4   2 -21   99.39   14.80
  -4  -2 -21  101.29   20.90
  -4  -2 -21   94.39   17.10
  -4  -2  21   97.99   33.40
  -4   2  21  104.39   29.10
  -4  -2  21  111.79   10.90
  -4   2 -21   98.89   14.60
  -4   2  21   85.69   12.10
   4  -2 -21   88.69   12.50
  -5  -2 -21   22.50   13.20
  -5   2 -21   28.90   12.90
  -5  -2  21   17.40   10.50
  -5  -2  21   23.60   19.80
  -5   2  21   15.70   11.70
  -5   2 -21   23.80   16.10
  -5   2  21   21.20   18.40
   5  -2 -21   14.20   14.90
  -5   2 -21   18.40   11.00
  -5  -2 -21   15.30   16.70
   5   2 -21   14.10   11.10
  -6   2 -21    5.60   17.70
  -6  -2 -21    4.50   18.30
  -6  -2  21   12.20   13.60
  -6   2 -21   21.30   11.20
  -6  -2 -21   10.80   13.40
  -6   2  21   24.40   11.80
   6  -2 -21   14.70   12.70
   6   2 -21   24.90   14.10
  -6   2  21   10.70   17.50
  -6   2 -21    8.80   12.40
  -7  -2  21    4.50   14.40
  -7   2 -21    7.80   16.40
  -7  -2 -21    9.60   20.10
  -7   2 -21    2.00   15.30
  -7  -2 -21   15.40   14.70
  -7   2  21   20.70   13.10
   7  -2 -21   17.30   16.70
   7   2 -21    1.90   12.40
  -7   2  21   -2.90   17.20
  -7   2 -21    7.50   11.40
  -1   3 -21   -6.30   10.40
   1  -3 -21    7.20   13.20
   1   3 -21    4.60   11.10
  -1  -3 -21    8.40   13.20
  -1   3  21    4.40   15.00
  -2  -3 -21   17.20   13.00
   2  -3 -21    4.90   15.90
   2   3 -21   21.10   13.20
  -2   3  21    8.20   17.40
  -2   3 -21   21.40   10.70
  -3   3 -21  132.69   13.00
   3  -3 -21  128.69   15.50
  -3   3 -21  110.99   14.10
  -3   3  21  128.89   16.60
  -3  -3 -21  136.79   16.60
   3   3 -21  125.69   13.30
  -3  -3  21  119.19   13.10
  -3   3 -21  130.69   26.10
  -3  -3 -21  123.09   22.70
  -4  -3 -21   82.99   12.40
  -4   3 -21   83.89   10.70
   4   3 -21   79.49   13.50
  -4  -3  21   74.99   12.90
  -4  -3 -21   75.19   16.20
  -4   3 -21   92.89   14.20
  -4  -3 -21   79.49   19.60
  -4   3  21   86.89   25.80
  -4  -3  21   80.19   30.30
  -4   3 -21   83.19   14.50
  -4   3  21  100.29   15.30
   4  -3 -21   80.19   12.50
  -5  -3 -21   73.79   12.80
  -5   3 -21   69.89   13.50
  -5  -3 -21   63.09   18.80
  -5  -3  21   62.89   20.00
  -5   3  21   73.29   15.60
  -5  -3 -21   82.29   17.10
  -5  -3  21   75.59   13.10
  -5   3  21   63.79   19.50
   5  -3 -21   57.99   16.10
  -5   3 -21   65.19   13.00
  -5   3 -21   63.79   12.90
   5   3 -21   65.19   13.90
  -6  -3 -21   17.80   13.30
  -6   3 -21   -0.40   14.20
  -6   3 -21    1.20   14.10
  -6  -3  21    8.20   13.60
  -6  -3  21    8.00   18.10
  -6   3  21   12.40   12.60
   6  -3 -21    3.50   13.40
   6   3 -21    5.80   11.80
  -6   3  21    9.90   16.00
  -6  -3 -21   10.00   17.40
  -6   3 -21    3.90   12.30
  -7  -3 -21   65.79   20.30
  -7  -3  21   44.10   11.90
  -7   3 -21   59.39   16.30
  -7  -3 -21   40.90   15.30
  -7   3  21   47.80   13.80
  -7   3 -21   44.70   17.00
   7  -3 -21   45.20   14.80
   7   3 -21   43.70   15.30
  -7   3  21   35.30   20.00
  -7   3 -21   25.70   13.80
   0   4 -21  136.69   13.70
   0  -4 -21  160.58   16.90
   1  -4 -21   29.60   13.40
  -1   4 -21   24.20   10.60
  -1   4  21   24.60   15.40
  -1  -4 -21   22.30   15.90
   1   4 -21   23.10   13.50
   2  -4 -21  238.58   16.70
  -2   4  21  236.78   17.60
   2   4 -21  241.08   14.00
  -2   4 -21  231.88   11.20
  -2  -4 -21  258.07   17.20
  -3   4 -21   21.60   12.80
   3  -4 -21   13.30   13.10
  -3  -4 -21   24.50   16.00
  -3   4  21    6.40   17.30
  -3  -4  21    8.70   12.30
  -3   4 -21   11.60   10.90
   3   4 -21    1.20   12.90
  -3   4 -21   10.80   21.20
  -3  -4 -21   10.90   18.50
  -4  -4  21    2.20   12.70
  -4  -4 -21   15.90   12.00
  -4   4 -21   27.60   13.30
   4   4 -21   20.20   13.10
  -4  -4 -21   18.60   13.40
  -4   4 -21   10.90   11.90
  -4  -4 -21   13.00   19.40
  -4   4  21    5.50   26.00
  -4   4 -21   20.40   15.40
  -4  -4  21   15.40   27.90
  -4   4  21    8.40   16.50
   4  -4 -21   14.20   16.40
   5   4 -21   85.89   13.60
  -5   4 -21   94.89   13.00
  -5  -4 -21   81.99   12.90
  -5   4 -21  101.89   14.00
  -5  -4  21   95.29   13.00
  -5  -4 -21   82.49   17.20
  -5  -4 -21   76.99   19.40
  -5   4  21  102.89   16.60
  -5  -4  21   72.99   19.00
  -5   4  21   82.39   19.00
   5  -4 -21   98.79   16.90
  -5   4 -21   71.49   12.50
  -6  -4 -21   19.50   13.20
  -6   4 -21   15.90   15.20
  -6   4  21    2.90   13.80
  -6   4 -21   17.80   14.40
  -6  -4 -21    3.20   21.00
  -6  -4  21    8.70   18.50
  -6  -4 -21   24.10   17.80
   6  -4 -21   -5.80   17.30
  -6   4  21   10.00   19.20
   6   4 -21   10.40   14.20
  -6   4 -21    0.10   12.70
  -6  -4  21    6.20   13.30
  -7   4 -21   38.80   16.40
  -7  -4 -21   23.80   17.40
  -7   4  21   24.80   13.80
  -7  -4  21   14.20   17.80
   7  -4 -21    2.40   18.90
  -7  -4  21   14.80   14.40
   7   4 -21   34.10   15.60
  -7  -4 -21   17.90   20.00
  -7   4 -21   27.70   16.30
  -7   4  21   23.70   18.80
  -7   4 -21   29.70   13.90
   1  -5 -21   16.30   15.00
  -1   5  21   23.60   15.00
  -1   5 -21   23.60   10.40
  -1  -5 -21   10.20   16.20
   1   5 -21   13.30   10.80
   2  -5 -21   28.90   15.50
  -2   5  21   14.60   17.50
   2   5 -21   -2.60   12.60
  -2  -5 -21   17.20   16.00
  -2   5 -21   20.30   10.90
  -3   5  21  190.18   19.70
  -3   5 -21  205.18   14.30
  -3   5 -21  184.38   14.10
   3   5 -21  181.48   13.90
  -3   5 -21  203.98   20.90
  -3  -5 -21  190.78   18.30
  -3  -5 -21  208.08   17.10
  -3  -5  21  201.08   27.00
   3  -5 -21  177.28   16.60
  -4  -5 -21    1.60   12.00
  -4   5 -21    2.30   11.40
  -4  -5 -21    3.80   18.60
   4   5 -21    2.70   10.70
  -4   5  21   -0.80   24.20
  -4  -5 -21    7.20   17.40
  -4   5 -21    1.90   15.00
  -4   5  21   18.90   17.40
  -4   5 -21    6.70   14.80
  -4  -5  21    8.10   12.40
  -4  -5  21    5.20   25.00
   4  -5 -21   -1.40   16.70
   5   5 -21   60.79   13.10
  -5  -5  21   73.99   12.70
  -5  -5 -21   56.19   12.50
  -5   5 -21   66.49   11.90
  -5   5 -21   58.69   15.40
  -5  -5 -21   69.89   17.10
  -5   5  21   59.59   13.80
  -5  -5 -21   58.19   18.60
  -5  -5  21   55.99   16.80
  -5   5  21   52.99   19.50
   5  -5 -21   46.40   17.10
  -5   5 -21   60.79   12.80
  -6   5 -21   15.20   15.60
  -6  -5 -21   10.40   13.70
  -6   5  21    5.30   14.30
  -6  -5 -21   25.40   20.80
  -6  -5  21   23.70   13.50
  -6  -5 -21    5.00   20.70
  -6  -5  21    3.10   18.40
   6  -5 -21   16.00   18.20
  -6   5 -21   20.50   17.20
  -6   5  21   -0.10   19.40
  -6   5 -21    8.40   13.30
   6   5 -21   12.60   14.20
  -7  -5  21  158.28   15.30
  -7   5 -21  141.79   21.00
  -7   5 -21  174.88   14.80
  -7   5  21  127.99   15.80
  -7  -5 -21  122.89   19.00
  -7  -5 -21   76.39   20.80
  -7  -5 -21   87.39   23.80
  -7  -5  21   37.80   18.70
   7  -5 -21  122.79   20.30
   7   5 -21  149.39   16.50
  -7   5  21   59.39   20.50
  -7   5 -21  151.18   15.30
   0   6 -21  362.26   14.50
   0  -6 -21  387.96   14.50
   1  -6 -21    6.80   12.60
  -1   6  21    4.70   15.50
  -1  -6 -21    7.80   16.10
  -1   6 -21    2.60   10.40
   1   6 -21    7.20   10.60
  -2   6 -21  289.67   12.40
   2  -6 -21  314.07   14.00
  -2   6  21  302.37   14.90
   2   6 -21  304.67   11.10
  -2  -6 -21  320.37   17.30
  -2   6 -21  292.97   14.10
  -3   6 -21   58.49   13.90
  -3   6 -21   61.09   13.40
   3   6 -21   49.99   13.50
  -3   6 -21   54.09   17.50
  -3  -6 -21   68.29   18.70
  -3  -6 -21   49.30   15.80
  -3  -6  21   47.40   22.90
  -3   6  21   59.69   17.80
   3  -6 -21   53.49   15.90
  -4  -6 -21   48.90   12.30
  -4   6 -21   63.49   11.30
   4   6 -21   50.89   12.90
  -4   6  21   51.29   23.00
  -4   6  21   50.69   15.40
  -4   6 -21   51.99   14.90
  -4  -6 -21   48.40   17.50
  -4   6 -21   53.49   11.60
  -4  -6  21   51.89   21.10
   4  -6 -21   45.80   16.40
  -4  -6 -21   50.79   17.10
   5   6 -21   59.49   11.20
  -5  -6 -21   54.09   19.50
  -5  -6 -21   55.99   14.60
  -5   6 -21   58.59   15.00
  -5   6 -21   70.69   13.10
  -5   6  21   58.69   18.50
  -5  -6 -21   54.69   18.50
  -5  -6  21   59.49   19.20
  -5   6  21   57.89   20.10
   5  -6 -21   59.29   14.30
  -5   6 -21   51.79   13.30
  -5  -6  21   58.99   10.60
  -6  -6 -21   -0.40   17.40
  -6   6 -21   10.40   13.20
  -6  -6 -21   17.40   15.30
  -6   6  21    3.70   18.50
  -6  -6  21    5.30   13.60
  -6  -6 -21    2.90   20.30
  -6  -6  21    3.40   18.70
   6  -6 -21    6.20   19.00
  -6   6  21   13.40   20.40
  -6   6 -21   -2.80   14.40
  -6   6 -21   -5.20   13.50
   6   6 -21   12.20   14.10
   1  -7 -21   85.19   14.90
  -1   7  21   78.19   12.80
  -1  -7 -21   88.89   15.70
  -1   7 -21   86.59   13.20
   1   7 -21  102.39   14.20
  -2   7 -21   14.00   14.00
  -2   7  21   11.40   17.70
  -2  -7 -21   13.50   15.60
   2   7 -21   21.70   13.20
  -2   7 -21    8.70   10.40
   2  -7 -21   11.80   15.30
  -2  -7 -21    8.10   15.50
  -3   7 -21   60.09   14.80
  -3   7 -21   54.69   13.80
   3   7 -21   51.29   10.90
  -3   7 -21   54.59   16.60
  -3  -7 -21   60.69   18.40
  -3  -7 -21   49.50   15.40
   3  -7 -21   48.70   15.90
  -3  -7  21   48.80   22.50
  -3   7  21   75.39   21.50
  -4  -7 -21    4.60   12.30
  -4   7 -21   -4.80   12.20
   4   7 -21    7.10   13.40
  -4   7  21    6.50   21.10
  -4   7 -21    2.20   15.20
  -4   7  21    8.30   19.90
  -4  -7 -21    0.20   17.80
  -4  -7 -21   11.10   19.30
   4  -7 -21   24.50   16.00
  -4  -7  21   -0.10   20.30
  -4   7 -21    0.10   14.50
   5   7 -21  214.78   15.10
  -5  -7 -21  216.78   15.50
  -5   7 -21  222.38   13.70
  -5   7 -21  185.78   13.90
  -5   7  21  201.28   16.50
  -5   7  21  198.98   19.90
  -5  -7 -21  165.48   20.10
   5  -7 -21  172.78   18.50
  -5   7 -21  177.18   15.40
  -5  -7  21  186.48   18.40
  -5  -7 -21  189.88   17.90
  -6   7 -21   27.90   17.00
  -6  -7 -21   16.70   16.20
  -6   7  21   34.40   15.80
   6  -7 -21   15.70   15.70
  -6  -7 -21   18.50   18.10
  -6  -7  21   12.20   17.00
  -6   7  21   10.50   19.30
  -6   7 -21   25.40   14.30
  -6   7 -21    1.20   14.60
   6   7 -21   10.90   14.90
  -6  -7 -21   12.10   20.50
   0  -8 -21  543.55   17.00
   0   8 -21  555.94   12.80
  -1   8 -21   27.00   10.90
   1  -8 -21   11.70   14.90
  -1   8  21   30.10   13.00
  -1  -8 -21   21.90   14.80
  -1   8 -21   18.70   12.90
   1   8 -21   19.60   13.80
  -2   8 -21   93.39   11.90
  -2  -8 -21   92.29   17.90
  -2   8  21   89.39   18.10
   2   8 -21   93.59   13.60
   2  -8 -21   96.59   12.70
  -2   8 -21   86.99   10.80
  -2  -8 -21   93.09   15.30
  -3   8 -21   12.00   12.00
  -3   8 -21   14.50   13.80
   3   8 -21   13.30   10.40
  -3  -8 -21    8.90   16.20
  -3   8 -21   17.10   16.60
   3  -8 -21   12.80   15.40
  -3  -8 -21    4.50   15.10
  -3  -8  21   15.30   21.30
  -3   8  21   16.20   20.80
  -4  -8 -21  174.08   15.10
  -4   8 -21  179.48   13.10
   4   8 -21  167.38   14.80
  -4  -8 -21  163.78   19.50
  -4   8  21  183.78   23.40
  -4   8 -21  172.68   16.90
  -4   8  21  161.98   21.70
   4  -8 -21  174.48   17.40
  -4  -8 -21  145.49   19.20
  -4  -8  21  160.88   19.40
  -4   8 -21  165.48   15.10
   5   8 -21   36.50   14.70
  -5  -8 -21   49.00   15.60
  -5   8 -21   54.09   12.80
  -5   8 -21   40.50   13.70
  -5   8  21   77.19   20.40
  -5   8  21   47.90   19.30
   5  -8 -21   43.20   17.90
  -5  -8 -21   49.90   19.70
  -5   8 -21   36.70   14.90
  -5  -8 -21   31.40   18.80
  -5  -8  21   29.90   17.60
  -6   8 -21    6.10   14.80
  -6   8  21   17.50   16.70
  -6  -8 -21    5.80   18.70
   6  -8 -21   -1.80   19.70
  -6  -8 -21    5.70   21.10
  -6   8  21   11.40   20.40
  -6  -8  21    2.30   19.40
  -6   8 -21    8.60   13.30
  -6  -8 -21    3.80   20.20
  -6   8 -21   12.20   14.80
   6   8 -21    1.70   15.10
  -1   9 -21   43.60   13.70
  -1  -9 -21   50.39   14.90
  -1   9  21   63.49   16.40
  -1   9 -21   58.69   13.80
   1   9 -21   52.89   13.80
   1  -9 -21   55.99   15.50
  -2   9 -21    5.80   14.00
  -2  -9 -21    1.40   17.00
  -2   9  21   12.20   17.60
   2   9 -21    0.70   13.50
   2  -9 -21    4.60   11.50
  -2   9 -21    4.60   10.80
  -2  -9 -21   13.20   15.50
  -3   9 -21   86.59   16.00
  -3  -9 -21   62.79   18.10
  -3   9 -21   72.69   14.20
   3   9 -21   56.99   14.10
  -3   9 -21   77.09   15.90
   3  -9 -21   66.99   16.00
  -3  -9 -21   67.79   14.40
  -3  -9  21   60.99   22.30
  -3   9  21   57.89   20.00
  -4  -9 -21   29.60   15.90
   4   9 -21   27.50   14.60
  -4   9 -21   31.60   13.40
  -4  -9 -21   28.30   18.70
  -4   9  21   24.70   23.10
  -4   9 -21   34.80   15.10
  -4   9  21   17.60   22.50
   4  -9 -21   27.30   16.80
  -4  -9 -21   21.60   18.70
  -4  -9  21   29.80   18.40
  -4   9 -21   49.99   14.80
  -5   9 -21  172.58   14.30
  -5   9 -21  140.29   15.60
  -5  -9 -21  166.18   18.20
  -5  -9 -21   98.09   23.00
  -5   9  21  125.59   19.20
   5  -9 -21  161.08   19.10
  -5   9  21  126.39   21.60
  -5   9 -21  168.68   16.10
  -5  -9 -21  111.49   20.40
  -5  -9  21  122.99   18.60
   5   9 -21  126.89   15.80
   0  10 -21   68.39   13.30
   0  10 -21   84.59   14.30
   0 -10 -21   76.99   15.00
  -1 -10 -21   15.00   16.90
  -1  10 -21    4.80   13.60
  -1  10 -21    1.20   11.40
  -1  10  21    4.10   19.00
   1 -10 -21   13.60   14.80
   1  10 -21   13.50   14.50
  -2 -10 -21  210.38   16.50
  -2  10 -21  225.68   15.50
  -2  10  21  238.28   18.50
   2  10 -21  217.78   15.40
   2 -10 -21  224.28   16.70
  -2  10 -21  222.08   14.70
  -2 -10 -21  232.18   15.90
  -3 -10 -21   17.80   14.40
  -3 -10 -21    9.50   17.50
  -3  10 -21   11.00   13.00
  -3  10 -21   27.10   12.00
   3  10 -21   14.10   16.50
  -3  10 -21   11.30   16.40
   3 -10 -21    0.10   15.90
  -3 -10 -21    8.10   15.00
  -3  10  21   19.90   16.10
  -3 -10  21   19.10   22.50
   4  10 -21   14.40   14.70
  -4 -10 -21   21.80   17.00
  -4 -10 -21   14.60   18.10
  -4  10 -21   33.90   16.50
  -4  10  21   14.10   24.00
  -4  10 -21   14.10   16.00
   4 -10 -21   23.10   17.40
  -4  10  21   25.80   18.70
  -4  10 -21   17.60   15.20
  -4 -10 -21   15.10   17.20
  -4 -10  21   16.30   20.20
  -5 -10 -21   11.90   23.90
  -5  10 -21   -0.60   16.80
  -5  10 -21   -2.00   15.40
  -5 -10 -21   -3.50   20.30
  -5  10  21    8.80   22.90
   5 -10 -21    7.10   14.80
  -5  10  21   10.40   21.30
  -5  10 -21   -4.90   16.20
  -5 -10 -21   10.40   19.80
  -5 -10  21   10.10   17.70
   5  10 -21    6.80   14.80
   1  11 -21   20.00   13.20
  -1  11 -21   -4.60   11.10
  -1  11 -21   -2.50   13.90
   1 -11 -21    3.10   14.90
  -1  11  21   11.60   18.50
   1  11 -21    7.60   14.50
  -1 -11 -21   -5.70   16.50
  -2  11 -21   16.70   14.70
  -2  11  21   19.70   17.90
   2  11 -21   33.70   14.60
   2 -11 -21   16.60   15.60
  -2  11 -21   19.70   11.60
  -2 -11 -21   10.10   17.10
  -2 -11 -21   21.30   15.50
  -3  11  21  116.49   19.60
  -3 -11 -21  105.79   17.30
  -3  11 -21  117.69   13.70
  -3  11 -21  103.19   15.30
   3  11 -21  111.69   17.70
   3 -11 -21   95.79   16.60
  -3 -11 -21  104.69   16.40
  -3 -11  21  102.69   20.60
  -3 -11 -21   82.89   20.50
  -4 -11 -21    9.10   21.30
   4  11 -21   -5.90   15.40
  -4 -11 -21   17.50   18.80
  -4  11 -21    5.80   14.90
  -4  11  21   -5.10   22.30
  -4  11 -21    9.00   16.60
   4 -11 -21   19.60   17.00
  -4  11 -21   -5.60   12.80
  -4  11  21    9.00   22.00
  -4 -11 -21    8.10   18.00
  -4 -11  21   10.20   18.30
   0  12 -21   56.39   13.90
   0  12 -21   64.19   15.50
   0 -12 -21   49.80   15.60
   1  12 -21    7.30   13.30
  -1  12 -21    4.20   14.20
  -1  12  21    8.30   16.20
  -1  12 -21    6.30   14.80
   1 -12 -21   12.40   17.70
  -1 -12 -21    2.30   17.10
   1  12 -21    7.90   15.40
   2  12 -21   49.70   14.30
  -2  12 -21   93.29   12.90
   2  12 -21   69.79   16.00
   2 -12 -21   87.69   16.60
  -2  12  21  111.09   18.40
  -2  12 -21   93.19   12.80
  -2 -12 -21   69.09   18.00
  -2 -12 -21   91.79   15.50
  -3  12  21   13.50   19.60
  -3 -12 -21    8.80   20.70
  -3  12 -21   -2.80   15.50
  -3  12 -21    6.90   16.30
   3  12 -21   -0.30   15.80
   3 -12 -21   11.00   16.30
  -3 -12 -21   11.20   22.70
  -3 -12 -21   12.60   16.60
  -3 -12  21    1.40   19.70
   1  13 -21    7.20   14.20
  -1  13 -21   19.00   15.00
  -1  13  21   15.80   19.10
  -1  13 -21   16.60   15.70
   1 -13 -21   14.10   17.80
  -1 -13 -21    8.10   17.10
   1  13 -21   25.20   15.90
  -2 -13 -21    4.10   17.60
   2  13 -21   -1.50   13.90
  -2  13 -21    9.40   15.70
   2  13 -21   -4.90   16.00
   2 -13 -21    8.90   18.40
  -2 -13 -21    5.10   21.10
  -2  13 -21   21.30   16.00
  -2  13  21   -1.10   17.70
  -2 -13 -21    7.10   15.60
   0   0 -22 2581.54   22.30
  -1   0 -22   64.39   12.50
   1   0 -22   69.19   12.30
  -2   0  22  215.98   15.80
  -2   0 -22  195.58   14.90
   2   0 -22  235.88   12.30
  -3   0  22  211.98   14.80
   3   0 -22  213.98   14.80
  -3   0 -22  207.68   15.70
  -4   0 -22  758.22   13.40
   4   0 -22  706.93   16.70
  -4   0  22  764.82   16.60
  -4   0 -22  691.73   33.60
  -4   0 -22  725.13   18.40
  -4   0 -22  740.83   24.70
  -5   0 -22    8.40   17.20
  -5   0 -22    3.60   13.00
  -5   0  22    9.90   13.90
  -5   0  22    4.30   22.50
   5   0 -22   -2.00   14.60
  -5   0 -22    1.80   13.90
  -6   0  22   11.80   14.50
  -6   0 -22   27.60   14.50
  -6   0 -22   13.00   15.40
   6   0 -22   34.00   15.20
  -6   0  22    2.60   20.20
  -7   0 -22   26.90   16.20
  -7   0 -22   20.10   21.70
   7   0 -22   -2.40   13.30
  -7   0  22   39.70   15.40
  -7   0  22   12.40   20.90
  -1   1 -22    2.00   11.60
   1  -1 -22    3.20   15.00
   1   1 -22   -3.30   11.60
  -1  -1 -22   10.50   15.10
  -2  -1 -22   90.99   15.10
   2  -1 -22   93.99   12.20
  -2   1 -22   94.89   14.20
   2   1 -22   95.19   14.20
  -2  -1  22  102.39   14.80
  -2   1  22   99.69   16.20
   3  -1 -22    5.30   12.00
   3   1 -22   13.60   13.90
  -3  -1  22    5.10   13.60
  -3  -1 -22    7.80   15.30
  -3   1 -22    9.40   14.60
  -3   1  22    1.70   14.60
  -4   1 -22   50.29   15.60
   4  -1 -22   73.99   12.60
  -4  -1 -22   74.89   12.70
  -4   1 -22   72.69   12.90
   4   1 -22   58.59   10.90
  -4   1  22   75.19   15.00
  -4  -1 -22   56.59   24.60
  -4  -1 -22   55.39   16.60
  -4  -1  22   61.29   13.40
  -4   1 -22   62.29   18.60
  -4  -1 -22   60.09   16.50
  -5   1  22   30.10   11.60
  -5  -1 -22   28.60   12.60
  -5   1 -22   21.30   13.30
  -5   1 -22   30.30   17.00
  -5  -1  22   23.90   13.10
  -5  -1  22   22.90   24.50
  -5   1  22   24.10   24.70
   5  -1 -22   33.60   12.40
  -5   1 -22   14.90   13.30
   5   1 -22   24.10   11.40
  -5  -1 -22   28.60   17.90
  -5  -1  22   24.30   21.30
  -6  -1 -22  132.89   19.70
  -6  -1  22  136.19   14.70
  -6   1 -22  122.59   12.30
  -6  -1 -22  126.59   14.20
  -6   1 -22  118.09   16.20
   6  -1 -22  120.29   16.10
   6   1 -22  116.99   15.60
  -6   1  22  116.39   12.90
  -6   1  22  103.39   21.80
  -6   1 -22  107.29   15.10
  -7  -1  22    4.80   15.10
  -7  -1 -22   18.00   21.00
  -7   1 -22    5.90   15.70
  -7  -1 -22    2.20   15.30
   7  -1 -22    7.40   13.90
   7   1 -22    3.00   13.10
  -7   1 -22   11.30   21.20
  -7   1  22   -0.50   15.60
  -7   1  22    6.70   19.10
  -7   1 -22    8.30   13.80
   0  -2 -22  424.36   16.80
   0   2 -22  449.56   15.40
  -1   2 -22  203.68   12.00
  -1   2  22  208.48   13.20
   1  -2 -22  216.58   16.10
   1   2 -22  199.68   14.60
  -1  -2 -22  203.58   13.70
  -2  -2 -22 1125.59   19.90
  -2   2  22 1115.59   17.70
   2  -2 -22 1085.19   18.80
   2   2 -22 1168.88   17.50
  -2   2 -22 1037.40   17.20
  -3   2 -22    8.10   10.60
   3  -2 -22    3.10   14.80
   3   2 -22   15.40   11.30
  -3  -2 -22   -2.80   16.30
  -3   2  22   16.00   12.60
  -3   2 -22   16.40   14.10
  -3  -2  22   -3.80   13.40
  -4  -2 -22   94.89   12.50
  -4  -2  22   90.79   11.10
  -4   2 -22   96.69   13.20
  -4   2  22   94.29   12.50
  -4   2 -22   82.19   12.70
   4   2 -22   99.79   13.90
  -4  -2 -22  109.09   16.90
  -4  -2 -22   86.69   22.70
  -4   2 -22   91.49   18.80
  -4  -2  22    0.20    8.40
   4  -2 -22   85.99   12.70
  -5  -2 -22   50.59   13.10
  -5   2 -22   63.19   13.80
  -5   2 -22   55.49   16.10
  -5  -2 -22   44.60   23.90
  -5  -2  22   46.00   23.60
  -5  -2  22   50.79   10.80
  -5  -2 -22   32.90   14.80
  -5   2  22   47.70   25.10
  -5   2 -22   45.60   14.90
   5  -2 -22   38.80   16.10
  -5   2  22   62.59   15.20
   5   2 -22   50.39   11.40
  -6  -2 -22   31.50   11.80
  -6   2 -22   33.60   14.70
  -6  -2  22    8.10   13.80
  -6  -2  22   33.90   19.10
   6  -2 -22   19.40   13.10
  -6   2 -22   29.10   18.40
  -6   2  22   35.50   15.50
   6   2 -22   36.60   14.80
  -6   2  22   23.70   19.50
  -6   2 -22   20.00   14.40
  -6  -2 -22   34.20   18.90
  -7  -2 -22   -4.20   20.60
  -7  -2  22    3.10   15.40
  -7   2 -22    5.80   16.70
  -7  -2 -22   26.10   15.60
   7  -2 -22   -4.90   17.60
  -7   2  22   15.60   13.30
   7   2 -22   13.10   16.30
  -7   2  22    3.60   21.30
  -7   2 -22   29.50   21.80
  -7   2 -22   -1.00   14.10
  -1   3 -22   -7.30   13.20
   1  -3 -22    9.10   16.30
  -1   3  22   14.10   15.30
   1   3 -22    9.20   11.40
  -1  -3 -22    6.80   13.30
  -2   3  22   36.80   17.00
   2  -3 -22   26.30   13.00
   2   3 -22   30.60   13.30
  -2   3 -22   25.80   11.10
  -2  -3 -22   42.20   16.60
  -3   3 -22   10.40   13.10
   3  -3 -22   -6.20   15.40
  -3  -3 -22   13.80   16.40
   3   3 -22    4.50   10.90
  -3   3  22    9.80   16.40
  -3  -3  22    8.60   13.10
  -3   3 -22    9.30   14.00
  -4   3  22  125.89   13.60
  -4  -3 -22  132.59   12.60
  -4   3 -22  121.69   11.50
   4   3 -22  128.79   13.80
  -4   3 -22  120.19   15.10
  -4  -3 -22  136.09   17.50
  -4  -3 -22  122.19   22.50
  -4  -3  22  127.99   13.30
  -4   3 -22  131.89   19.30
   4  -3 -22  110.69   13.40
  -5  -3  22    2.50   13.00
  -5  -3 -22    2.60   12.40
  -5   3 -22    1.80   11.30
  -5  -3 -22    1.70   17.30
  -5  -3 -22   13.40   20.50
  -5   3 -22  -10.60   15.70
  -5  -3  22    8.40   23.70
  -5   3  22    3.00   22.80
  -5   3  22    5.00   12.80
  -5   3 -22    1.60   13.80
   5  -3 -22   17.10   16.20
   5   3 -22   -2.10   13.70
  -6  -3 -22   46.80   14.30
  -6   3 -22   63.39   15.10
  -6  -3 -22   25.40   22.30
  -6  -3  22   39.30   21.50
  -6   3  22   40.20   13.40
  -6  -3 -22   32.30   19.40
   6  -3 -22   26.40   17.10
  -6  -3  22   54.89   13.80
  -6   3  22   41.20   22.60
   6   3 -22   45.70   14.60
  -6   3 -22   36.40   13.20
  -6   3 -22   52.89   18.80
  -7   3 -22   -0.90   17.00
  -7   3 -22   27.30   16.40
  -7  -3 -22    8.20   16.00
  -7  -3  22    2.70   12.60
  -7  -3  22    8.00   20.40
  -7   3  22    5.20   14.10
   7  -3 -22   31.30   18.40
   7   3 -22    0.40   13.20
  -7  -3 -22   21.90   21.70
  -7   3  22    8.10   19.90
   0   4 -22  363.46   12.50
   0  -4 -22  399.96   17.80
  -1   4  22   69.79   15.80
   1  -4 -22   91.19   17.10
  -1   4 -22   62.79   13.70
  -1  -4 -22   58.99   16.30
   1   4 -22   55.09   11.30
   2  -4 -22  420.66   17.90
   2   4 -22  428.66   14.80
  -2   4 -22  422.56   12.80
  -2  -4 -22  433.26   16.20
  -2   4  22  417.36   19.20
  -3   4 -22   32.70   13.80
  -3  -4 -22   32.50   13.30
  -3   4 -22   28.50   13.40
   3  -4 -22   32.70   12.80
  -3   4  22   30.90   17.40
   3   4 -22   20.70   11.20
  -4  -4 -22  121.09   12.70
  -4   4 -22  116.39   14.10
   4   4 -22   93.59   13.90
  -4  -4 -22  127.19   17.80
  -4   4 -22  110.99   15.00
  -4   4  22  112.49   43.90
  -4   4 -22  114.99   18.70
  -4  -4 -22  115.09   20.80
  -4  -4  22  105.09   13.40
  -4  -4  22  112.19   34.60
   4  -4 -22   96.19   13.70
  -4   4  22  121.79   16.80
   5   4 -22    9.10   14.00
  -5  -4 -22    0.20   13.30
  -5   4 -22   10.90   14.30
  -5  -4 -22   13.10   18.10
  -5  -4  22    4.90   11.10
  -5  -4 -22    4.10   20.50
  -5  -4  22   -1.50   23.50
  -5   4  22   -2.50   22.70
  -5   4  22   -5.60   13.90
  -5   4 -22   -0.20   16.10
  -5   4 -22    0.30   14.40
   5  -4 -22   16.30   16.60
  -6   4 -22   19.80   18.20
  -6  -4  22   17.40   11.70
  -6   4 -22   27.10   12.60
  -6  -4 -22   25.60   13.90
  -6  -4 -22   25.40   18.70
  -6  -4 -22    1.30   21.10
  -6   4  22   18.00   14.30
  -6  -4  22   14.10   19.60
   6  -4 -22   30.30   17.70
  -6   4  22   18.20   21.40
  -6   4 -22   15.70   15.40
   6   4 -22   31.20   14.90
   1  -5 -22   78.79   16.50
  -1   5 -22   73.49   13.50
  -1  -5 -22   89.49   13.50
   1   5 -22   71.79   11.40
  -1   5  22   70.19   15.70
   2  -5 -22   53.39   16.20
   2   5 -22   65.79   13.90
  -2   5  22   60.99   18.20
  -2   5 -22   62.89   11.30
  -2  -5 -22   82.99   16.60
  -3   5 -22   35.50   13.80
  -3   5 -22   26.90   13.80
  -3   5  22   52.49   19.00
   3   5 -22   35.10   13.50
  -3  -5 -22   35.30   16.90
  -3  -5 -22   28.50   19.30
   3  -5 -22   48.70   16.30
  -4  -5 -22   -0.90   16.40
  -4  -5 -22    8.90   12.30
  -4   5 -22    5.50   11.70
   4   5 -22   -1.30   13.20
  -4   5 -22    5.30   14.70
  -4   5  22    5.10   33.30
  -4   5 -22    3.50   17.00
  -4  -5  22    9.00    9.90
  -4  -5 -22    1.70   19.20
  -4  -5  22    7.70   30.60
  -4   5  22    3.10   15.10
   4  -5 -22    2.20   16.90
   5   5 -22   18.60   13.80
  -5  -5 -22   21.50   13.30
  -5  -5 -22   27.60   17.90
  -5   5 -22   26.30   15.00
  -5  -5 -22   14.60   20.70
  -5   5  22   29.20   14.80
  -5   5  22   23.80   23.40
  -5  -5  22   26.50   22.40
  -5   5 -22   28.70   15.10
   5  -5 -22   11.30   18.40
  -5   5 -22   26.00   16.10
  -5  -5  22   17.50   12.90
  -6   5 -22   89.19   13.50
  -6  -5 -22   96.49   14.70
  -6   5 -22   91.19   18.70
  -6  -5 -22  122.79   22.10
  -6  -5 -22   86.99   25.00
  -6   5  22   98.29   18.20
  -6  -5  22   74.29   20.80
   6  -5 -22   93.29   15.30
  -6   5  22   74.99   23.20
  -6  -5  22   88.19   11.90
  -6   5 -22   83.69   16.40
   6   5 -22  114.29   12.70
   0   6 -22  632.94   15.30
   0  -6 -22  684.73   19.00
   1  -6 -22   20.80   15.90
  -1   6 -22   11.20   10.70
  -1  -6 -22   13.20   13.30
   1   6 -22   13.20   13.50
  -1   6  22   25.90   15.80
  -2   6 -22   47.00   11.50
   2  -6 -22   25.80   13.30
  -2   6  22   39.00   14.50
   2   6 -22   48.30   10.90
  -2  -6 -22   43.00   16.60
  -2   6 -22   36.20   13.90
  -3   6 -22   15.20   14.30
  -3   6  22    6.00   17.40
  -3   6 -22   -0.40   11.60
   3   6 -22    6.40   13.10
  -3  -6 -22   -3.90   16.70
  -3  -6 -22    1.00   16.50
   3  -6 -22    6.90   15.90
  -4  -6 -22  155.28   13.30
  -4   6 -22  154.88   15.00
   4   6 -22  147.29   11.80
  -4   6 -22  152.18   12.90
  -4   6  22  150.08   31.40
  -4   6 -22  145.99   17.00
  -4  -6 -22  143.99   18.30
   4  -6 -22  137.49   14.70
  -4  -6  22  163.98   29.00
  -4   6  22  138.89   20.50
  -4  -6 -22  156.38   18.70
  -5  -6 -22    6.10   20.60
   5   6 -22    1.90   11.50
  -5  -6 -22    7.40   13.10
  -5   6 -22   -3.40   12.80
  -5   6  22    4.90   24.70
  -5   6  22    8.50   18.70
  -5  -6 -22    8.70   20.80
  -5   6 -22   -0.70   15.90
  -5  -6  22    2.80   22.40
   5  -6 -22    5.60   17.80
  -5   6 -22    9.10   16.30
  -6  -6 -22   -0.10   18.00
  -6   6 -22   16.00   18.40
  -6   6 -22   16.90   16.90
  -6  -6 -22   16.10   14.10
  -6   6  22   18.70   19.00
  -6  -6 -22    2.90   21.10
   6  -6 -22   15.60   19.60
  -6  -6  22    8.50   17.50
  -6   6  22    0.90   20.30
  -6   6 -22    4.10   14.60
   6   6 -22    7.10   15.00
  -6  -6  22    5.40   14.10
   1  -7 -22   98.39   13.50
  -1  -7 -22  112.79   16.60
  -1   7 -22   92.09   13.60
  -1   7  22  105.99   13.70
   1   7 -22  100.29   11.80
  -2   7 -22    3.40   14.40
  -2  -7 -22    8.00   16.70
  -2   7  22   19.40   18.50
   2   7 -22    8.00   13.40
  -2   7 -22    8.50   10.90
   2  -7 -22    4.20   15.80
  -3   7  22  362.36   23.50
  -3   7 -22  301.17   15.20
  -3   7 -22  296.57   14.70
   3   7 -22  280.07   15.00
  -3  -7 -22  346.47   19.90
   3  -7 -22  296.97   17.80
  -3  -7 -22  297.27   19.70
  -3  -7  22  297.87   27.20
  -4  -7 -22   38.00   12.60
  -4   7 -22   39.70   15.70
   4   7 -22   36.70   13.70
  -4   7 -22   27.50   12.50
  -4   7  22   43.30   28.30
  -4   7 -22   36.00   16.50
  -4  -7 -22   43.70   16.80
  -4  -7 -22   37.60   17.50
   4  -7 -22   42.20   14.10
  -4   7  22   30.40   17.20
  -4  -7  22   36.90   24.90
   5   7 -22    5.80   14.10
  -5  -7 -22    0.10   13.20
  -5   7 -22   -7.40   13.20
  -5   7  22   -8.50   16.70
  -5   7  22    1.90   25.40
  -5   7 -22    5.20   14.60
  -5  -7 -22    0.70   18.60
   5  -7 -22   11.90   18.10
  -5  -7  22    5.20   20.20
  -5  -7 -22   -1.40   19.80
  -5   7 -22    8.90   13.50
  -6   7 -22    5.10   14.80
  -6   7 -22   -2.70   14.60
  -6  -7 -22    8.70   16.50
  -6   7  22   17.10   19.90
   6  -7 -22   22.80   20.20
  -6  -7 -22   -0.20   21.70
  -6   7  22   10.70   24.10
  -6  -7  22    1.60   20.20
  -6   7 -22   -6.00   15.60
   6   7 -22    4.60   15.40
  -6  -7 -22    7.30   21.30
   0  -8 -22   11.20   15.90
   0   8 -22    4.20   13.70
  -1   8 -22   15.40   11.20
   1  -8 -22   16.60   15.60
  -1  -8 -22   -1.70   15.70
  -1   8 -22   13.70   13.60
  -1   8  22    4.30   14.00
   1   8 -22    1.30   13.80
  -2   8 -22  252.27   12.80
  -2  -8 -22  232.98   16.70
  -2   8  22  214.68   18.50
   2   8 -22  223.98   14.40
  -2   8 -22  230.08   11.80
   2  -8 -22  220.58   16.90
  -3   8  22   17.70   21.00
  -3   8 -22   17.80   12.70
  -3   8 -22   26.30   14.60
   3   8 -22   21.50   14.20
  -3  -8 -22   15.40   16.60
   3  -8 -22   28.80   13.20
  -3  -8 -22   25.30   15.10
  -3  -8  22   13.10   23.70
  -4  -8 -22    2.80   12.70
   4   8 -22    3.80   11.80
  -4   8 -22   15.50   16.00
  -4   8  22    7.80   25.40
  -4  -8 -22    7.60   18.80
  -4   8 -22    6.50   17.30
  -4   8 -22    5.50   15.10
   4  -8 -22    4.70   13.50
  -4  -8 -22    2.90   17.90
  -4   8  22    1.20   17.90
  -4  -8  22   10.40   21.70
   5   8 -22   18.10   15.00
  -5  -8 -22    5.40   15.40
  -5   8 -22   -4.40   17.10
  -5   8  22    9.20   24.20
  -5   8  22    7.50   16.80
  -5  -8 -22   13.80   20.10
  -5   8 -22   -2.60   15.70
   5  -8 -22   14.90   15.60
  -5  -8 -22    7.90   19.60
  -5  -8  22    8.90   20.10
  -5   8 -22   11.50   13.10
  -1   9 -22  205.78   14.40
  -1  -9 -22  196.08   16.20
  -1   9 -22  186.18   14.60
   1   9 -22  200.08   12.80
  -1   9  22  200.48   17.60
   1  -9 -22  204.88   16.40
  -2   9 -22   -4.10   15.00
  -2  -9 -22   11.60   18.30
  -2   9  22    6.60   14.50
   2   9 -22    2.60   14.10
  -2   9 -22    8.90   10.50
   2  -9 -22    5.60   15.50
  -3   9  22    3.50   16.80
  -3   9 -22    2.60   16.20
  -3   9 -22   21.40   14.50
  -3  -9 -22    3.80   16.00
   3   9 -22    0.10   14.10
   3  -9 -22    2.60   16.40
  -3  -9 -22    5.30   15.90
  -3  -9  22   -1.50   25.10
  -4  -9 -22   26.60   15.40
   4   9 -22   20.60   14.80
  -4   9 -22   31.70   13.90
  -4  -9 -22   15.00   21.80
  -4   9 -22   32.70   12.60
  -4   9  22   31.50   26.40
  -4   9 -22   30.20   18.20
   4  -9 -22   29.30   14.20
  -4   9  22   26.80   18.20
  -4  -9 -22   26.40   16.70
  -4  -9  22   20.80   22.20
  -5   9 -22  159.88   19.10
  -5  -9 -22  163.88   19.50
  -5  -9 -22  102.99   24.30
  -5   9  22  159.48   27.10
   5  -9 -22  156.08   19.80
  -5   9 -22   99.49   18.00
  -5   9  22  178.38   22.70
  -5  -9 -22  114.59   21.20
  -5  -9  22  146.39   22.20
  -5   9 -22  168.88   15.40
   5   9 -22  160.98   16.00
   0  10 -22   71.99   13.60
   0  10 -22   80.59   14.80
   0 -10 -22   66.79   15.90
  -1 -10 -22   62.09   17.60
  -1  10 -22   54.69   13.70
  -1  10  22   58.89   19.20
  -1  10 -22   53.39   15.30
   1  10 -22   58.89   15.00
   1 -10 -22   43.00   15.20
  -2 -10 -22    3.90   15.00
  -2  10 -22    0.30   14.30
   2  10 -22   -3.20   14.30
  -2  10  22    7.30   18.10
  -2  10 -22    5.30   14.40
   2 -10 -22    8.80   15.60
  -3 -10 -22   11.50   15.20
  -3  10 -22   28.20   12.30
  -3 -10 -22   13.20   20.30
  -3  10 -22   11.30   13.00
  -3  10  22   23.10   20.20
   3  10 -22   22.40   15.00
   3 -10 -22   16.10   13.50
  -3 -10 -22   11.90   15.10
  -3 -10  22   17.30   23.60
   4  10 -22   12.40   15.30
  -4 -10 -22    6.50   15.20
  -4 -10 -22   13.00   20.80
  -4  10 -22   18.00   17.30
  -4  10 -22    9.00   15.80
  -4  10 -22    2.30   17.50
   4 -10 -22   18.90   17.40
  -4 -10 -22    0.80   17.40
  -4  10  22   15.30   23.00
  -4 -10  22   -3.40   19.00
   1  11 -22   11.70   13.60
  -1  11 -22   -5.20   14.10
  -1  11 -22    5.60   15.00
  -1  11  22   11.40   19.10
   1 -11 -22    6.00   15.60
   1  11 -22    8.40   15.30
  -1 -11 -22    1.90   17.10
  -2  11 -22    5.60   14.60
   2  11 -22    1.70   15.30
   2 -11 -22   20.10   15.40
  -2  11 -22   18.40   12.20
  -2  11  22   -1.40   18.40
  -2 -11 -22   12.60   18.00
  -3 -11 -22   80.59   17.50
  -3  11 -22   62.89   16.30
  -3  11 -22   66.69   17.10
  -3  11  22   89.29   20.50
   3  11 -22   59.49   16.00
   3 -11 -22   68.29   17.00
  -3 -11 -22   80.79   18.10
  -3 -11 -22   44.70   20.50
  -3 -11  22   70.49   23.70
  -4 -11 -22   17.80   23.50
   4  11 -22   16.00   15.90
  -4 -11 -22   26.80   18.60
  -4  11 -22   39.90   18.90
  -4  11 -22   13.90   14.00
  -4  11 -22   14.20   18.40
   4 -11 -22   18.10   18.30
  -4 -11 -22   24.60   18.40
  -4 -11  22   19.20   21.60
   0  12 -22   18.10   15.90
   0  12 -22   22.40   14.30
   0 -12 -22   30.00   17.90
   1  12 -22   43.80   14.30
  -1  12 -22   49.20   15.30
  -1  12  22   68.79   16.80
  -1  12 -22   52.89   15.80
   1 -12 -22   29.60   16.40
  -1 -12 -22   40.10   17.80
   1  12 -22   71.19   16.90
  -2  12  22    6.90   18.50
   2  12 -22   17.10   14.20
  -2  12 -22   -5.60   15.00
   2  12 -22   -3.80   16.20
   2 -12 -22   13.20   15.90
  -2  12 -22    7.80   14.90
  -2 -12 -22   -1.00   19.60
  -3  12 -22   36.80   16.50
  -3 -12 -22   42.60   20.40
  -3  12 -22   49.50   17.30
   3  12 -22   45.00   16.20
  -3  12  22   47.30   21.00
   3 -12 -22   57.19   14.50
  -3 -12 -22   42.50   21.00
  -3 -12 -22   60.69   17.30
  -3 -12  22   60.09   23.70
   1  13 -22    5.80   14.70
  -1  13 -22   -2.60   15.40
  -1  13 -22   24.00   16.20
   1 -13 -22   -6.10   18.20
  -1 -13 -22    2.00   20.20
   1  13 -22    8.20   16.80
  -1   1 -23  277.77   15.70
   1  -1 -23  278.07   13.70
   1   1 -23  278.47   13.40
  -1  -1 -23  287.17   14.50
  -2  -1 -23   13.80   16.00
  -2   1  23   13.30   16.40
  -2   1 -23    8.70   12.00
   2  -1 -23   18.10   15.10
   2   1 -23   26.80   11.60
  -2  -1  23   12.40   12.20
  -3   1  23  186.28   15.70
   3  -1 -23  180.58   15.70
   3   1 -23  182.18   12.30
  -3  -1 -23  199.98   16.60
  -3   1 -23  182.88   15.50
  -3  -1  23  204.78   14.80
   4  -1 -23    1.70   11.90
  -4  -1  23    8.00   13.60
  -4  -1 -23    5.70   12.80
  -4   1 -23    2.80   13.00
   4   1 -23    6.70   11.60
  -4   1  23   -4.10   11.90
  -4  -1 -23    4.20   17.10
  -4   1 -23    5.40   16.20
  -5   1 -23  103.19   17.60
  -5  -1 -23  124.29   13.80
  -5   1 -23  131.49   13.90
  -5   1  23  116.39   13.00
  -5  -1 -23   93.39   27.20
  -5  -1  23  124.39   14.30
  -5  -1 -23  127.59   18.80
  -5   1 -23  108.89   18.00
   5  -1 -23  116.19   15.90
   5   1 -23  116.49   12.60
  -5  -1 -23  104.79   17.00
  -6   1  23   26.40   12.30
  -6   1 -23   10.10   14.50
  -6  -1 -23    9.20   14.60
  -6   1 -23   24.00   19.60
  -6  -1  23   21.40   14.60
  -6  -1  23   16.00   24.30
   6  -1 -23   42.00   16.20
   6   1 -23   22.80   12.90
  -6   1  23   12.40   25.60
  -6   1 -23   18.30   15.20
  -6  -1  23   19.90   24.70
  -6  -1 -23   16.60   19.70
   0  -2 -23    7.10   15.80
   0   2 -23   -0.10   12.00
  -1   2 -23   45.30   12.00
   1  -2 -23   54.79   15.80
   1   2 -23   52.59   14.50
  -1  -2 -23   51.09   16.90
  -2  -2 -23    2.20   13.60
   2  -2 -23   10.50   13.20
  -2   2 -23   16.90   14.80
   2   2 -23   14.90   14.50
  -2   2  23   24.40   17.50
  -3   2 -23   27.10   13.10
   3  -2 -23   18.00   15.30
  -3  -2 -23   14.90   17.30
   3   2 -23    9.90   13.40
  -3   2 -23   23.60   15.10
  -3   2  23   32.80   13.50
  -3  -2  23    5.80   13.60
  -4  -2 -23    0.40   12.50
  -4   2 -23   14.90   13.60
   4   2 -23   -4.40   10.70
  -4   2  23   10.10   15.80
  -4  -2 -23    2.10   17.20
  -4  -2  23   -1.60   13.10
  -4   2 -23    1.30   12.20
   4  -2 -23   -1.20   12.80
  -5   2  23   11.30   15.60
  -5  -2 -23   -6.60   13.50
  -5   2 -23    9.60   11.60
  -5   2 -23   11.60   13.60
  -5  -2 -23   10.00   24.90
  -5  -2 -23    8.90   17.90
  -5   2 -23    0.60   17.10
   5  -2 -23   -0.10   15.90
  -5  -2  23   -0.80   13.30
   5   2 -23    3.10   11.30
  -6  -2 -23    7.70   14.70
  -6   2 -23   10.40   15.50
  -6   2 -23   -0.10   16.10
  -6  -2 -23    6.60   25.50
  -6  -2  23   10.30   24.40
  -6  -2  23   -5.60   14.30
   6  -2 -23   10.40   16.70
  -6   2  23    7.30   26.80
  -6  -2 -23    6.70   19.50
   6   2 -23   -0.10   15.40
  -6   2 -23    6.90   13.70
  -6   2  23    8.60   16.10
  -1   3 -23   37.30   14.30
  -1   3  23   28.30   12.80
   1  -3 -23   45.90   13.40
   1   3 -23   31.00   11.60
  -1  -3 -23   43.70   16.70
   2  -3 -23   17.80   16.20
  -2   3  23   35.60   17.70
  -2   3 -23    6.00   11.60
   2   3 -23   13.90   11.60
  -2  -3 -23   29.90   14.10
  -3   3 -23   48.20   11.60
  -3  -3 -23   54.59   17.20
   3  -3 -23   58.29   16.30
  -3  -3  23   65.79   11.30
   3   3 -23   54.69   14.00
  -3   3  23   49.99   14.60
  -3   3 -23   47.10   14.90
  -4  -3  23   74.59   10.90
  -4  -3 -23   68.49   13.50
  -4   3 -23   65.19   11.70
  -4   3 -23   58.49   15.60
   4   3 -23   71.09   11.40
  -4   3  23   68.99   13.80
  -4  -3 -23   45.10   17.30
  -4   3 -23   64.09   28.00
  -4  -3 -23   59.79   27.60
   4  -3 -23   64.89   13.50
  -5  -3 -23   12.30   13.70
  -5   3 -23   -0.50   11.70
  -5   3 -23   14.70   17.00
  -5  -3 -23    1.50   18.80
  -5  -3  23    9.20   13.70
  -5  -3 -23    3.70   22.10
  -5   3  23    3.40   42.50
  -5   3 -23   -1.90   16.80
  -5  -3  23    3.50   37.00
   5  -3 -23   -3.30   13.30
  -5   3  23    5.10   12.80
   5   3 -23    0.30   14.30
  -6   3 -23   44.60   13.10
  -6  -3 -23   44.20   15.20
  -6  -3 -23   20.70   25.20
  -6  -3 -23   58.59   19.80
  -6  -3  23   34.90   24.90
  -6   3 -23   21.70   19.10
   6  -3 -23   31.30   17.90
  -6   3  23   29.80   28.80
  -6   3 -23   24.20   16.40
   6   3 -23   48.70   14.90
  -6   3  23   33.40   16.90
  -6  -3  23   37.00   11.70
   0  -4 -23   33.80   13.70
   0   4 -23   24.70   14.30
  -1   4 -23  130.69   11.80
   1  -4 -23  127.99   14.30
  -1   4  23  136.59   16.70
  -1  -4 -23  140.89   18.00
   1   4 -23  126.69   11.80
   2  -4 -23   11.60   13.90
  -2   4  23   13.20   17.90
   2   4 -23   12.60   11.20
  -2   4 -23   11.50   11.40
  -2  -4 -23    9.60   17.20
  -3   4 -23   85.29   14.40
   3  -4 -23   97.19   13.80
   3   4 -23   78.09   13.90
  -3   4  23   85.49   18.80
  -3   4 -23   72.79   14.70
  -3  -4 -23  100.99   17.60
  -4  -4 -23    9.90   13.20
  -4   4  23   25.90   14.00
  -4   4 -23   22.60   14.10
  -4  -4 -23    8.60   18.00
   4   4 -23   20.20   11.40
  -4   4 -23   10.40   15.10
  -4   4 -23   14.30   23.90
  -4  -4  23   14.90   11.00
  -4  -4 -23   16.50   22.60
   4  -4 -23   16.90   14.10
   5   4 -23   26.50   14.50
  -5  -4  23   34.30   11.30
  -5  -4 -23   36.70   13.70
  -5   4 -23   28.90   12.60
  -5  -4 -23   36.70   18.90
  -5   4 -23   23.00   16.90
  -5   4  23   21.10   36.50
  -5  -4 -23   19.20   23.00
  -5   4 -23   27.60   17.80
  -5  -4  23   23.50   31.30
   5  -4 -23    9.50   14.60
  -5   4  23   34.60   14.40
  -6   4 -23    1.20   13.20
  -6  -4 -23    6.70   14.60
  -6  -4 -23    3.50   19.90
  -6  -4  23    8.10   14.30
  -6  -4 -23    5.10   23.90
  -6  -4  23   -2.10   22.40
   6  -4 -23    8.70   15.20
  -6   4  23    5.30   29.00
  -6   4 -23    7.80   19.10
  -6   4 -23    8.90   16.00
  -6   4  23    1.00   17.60
   6   4 -23   -7.90   14.80
   1  -5 -23   12.90   13.70
  -1   5 -23    3.50   13.80
  -1  -5 -23   10.30   13.90
  -1   5  23    7.00   16.30
   1   5 -23   13.60   11.40
  -2   5  23   38.00   18.80
   2  -5 -23   35.50   14.00
   2   5 -23   42.80   13.70
  -2   5 -23   47.80   11.50
  -2  -5 -23   53.99   17.00
  -3   5 -23   18.80   14.40
   3   5 -23    3.00   14.00
  -3   5  23    2.80   16.50
  -3  -5 -23   17.90   17.40
  -3   5 -23   20.90   14.40
   3  -5 -23   25.40   17.30
  -4   5  23  112.59   15.60
  -4  -5 -23  118.59   14.00
  -4   5 -23  106.39   12.30
   4   5 -23   90.29   14.40
  -4   5 -23   82.49   12.60
  -4   5 -23  100.29   23.30
  -4  -5 -23   82.29   21.90
   4  -5 -23  106.59   18.40
  -4  -5 -23  100.49   18.70
   5   5 -23   10.50   14.20
  -5  -5 -23   13.10   19.10
  -5  -5 -23    7.70   16.00
  -5   5 -23   13.70   15.50
  -5   5 -23    2.30   13.60
  -5   5  23    4.80   33.90
  -5  -5 -23    4.50   20.50
  -5   5 -23   -2.00   18.20
   5  -5 -23   -5.70   18.20
  -5  -5  23    3.80   28.80
  -5   5  23   -1.20   18.40
  -5  -5  23   14.40   13.70
  -6  -5 -23   93.69   23.40
  -6   5 -23  102.49   14.50
  -6  -5 -23  114.69   15.20
  -6  -5  23   91.39   15.00
  -6  -5 -23   80.29   25.10
   6  -5 -23   93.49   16.00
  -6   5  23   79.29   28.10
  -6  -5  23   80.49   23.90
  -6   5  23   74.79   19.30
  -6   5 -23   83.49   16.30
  -6   5 -23   93.69   18.10
   6   5 -23   86.89   13.40
   0   6 -23  123.69   14.10
   0  -6 -23  131.19   14.10
   1  -6 -23  294.07   17.70
  -1   6  23  308.47   15.10
  -1   6 -23  310.07   14.90
  -1  -6 -23  322.27   18.40
   1   6 -23  311.27   15.00
  -2   6  23  128.59   19.50
  -2   6 -23  142.79   12.30
   2  -6 -23  139.99   14.70
  -2  -6 -23  163.98   18.00
   2   6 -23  151.68   14.20
  -2   6 -23  152.58   14.30
  -3   6 -23  186.88   15.50
   3   6 -23  199.38   14.50
  -3   6  23  192.78   22.70
  -3  -6 -23  201.98   18.70
  -3   6 -23  174.58   12.70
   3  -6 -23  175.98   17.40
  -4   6  23   17.60   20.50
  -4  -6 -23   33.90   13.40
  -4   6 -23   36.60   15.50
   4   6 -23   33.40   14.10
  -4   6 -23   21.00   15.80
  -4   6 -23   37.90   21.40
  -4  -6 -23   24.10   18.40
   4  -6 -23   35.50   14.30
  -4  -6 -23   42.50   18.30
  -4  -6  23   23.50   35.20
   5   6 -23    6.30   11.60
  -5  -6 -23    6.90   13.70
  -5   6 -23   18.10   13.30
  -5   6  23   11.40   29.50
  -5   6 -23   15.90   16.80
  -5   6 -23   12.60   17.60
  -5  -6 -23   11.40   20.60
   5  -6 -23   16.00   18.90
  -5   6  23   28.00   16.00
  -5  -6  23   18.30   24.20
  -5  -6 -23    4.80   18.70
  -6  -6 -23    9.90   19.60
  -6   6 -23    8.60   14.50
  -6  -6 -23   13.40   17.40
  -6  -6 -23   -2.60   24.20
   6  -6 -23   11.10   16.40
  -6  -6  23   15.00   23.60
  -6   6 -23    7.90   17.90
   6   6 -23    1.60   12.80
  -6   6 -23   19.70   19.30
  -6  -6  23   -1.70   12.00
   1  -7 -23   48.60   13.50
  -1   7  23   59.59   17.00
  -1  -7 -23   64.69   17.50
  -1   7 -23   61.79   14.10
   1   7 -23   68.29   11.40
  -2   7 -23   72.89   15.50
  -2  -7 -23   80.19   17.60
   2   7 -23   71.09   14.20
  -2   7 -23   81.09   12.30
  -2   7  23   71.19   16.20
   2  -7 -23   78.99   17.20
  -3   7 -23   31.50   14.50
  -3   7 -23   33.20   15.00
  -3   7  23   33.60   18.50
   3   7 -23   20.10   14.10
  -3  -7 -23   35.30   17.80
   3  -7 -23   33.50   16.70
  -3  -7 -23   26.50   18.60
  -4   7  23  166.48   22.50
  -4  -7 -23  145.99   13.80
  -4   7 -23  140.59   16.50
   4   7 -23  134.99   15.00
  -4   7 -23  159.78   13.50
  -4   7 -23  142.19   21.50
  -4  -7 -23  123.09   18.40
   4  -7 -23  146.59   18.70
  -4  -7 -23  115.09   20.20
  -4  -7  23  138.09   31.80
   5   7 -23   15.30   15.10
  -5  -7 -23   11.20   15.80
  -5   7 -23  -10.70   17.20
  -5   7  23   11.80   29.70
  -5   7 -23   16.40   17.30
  -5   7 -23    6.70   18.10
   5  -7 -23    9.60   15.90
  -5  -7 -23    4.20   21.50
  -5  -7 -23    7.50   20.70
  -5   7  23   10.20   20.00
  -5  -7  23    6.30   23.90
   0   8 -23  205.48   15.30
   0  -8 -23  208.68   16.70
  -1   8 -23  307.07   14.60
   1  -8 -23  304.77   17.90
  -1   8  23  339.67   15.40
  -1  -8 -23  288.67   17.60
  -1   8 -23  325.97   12.40
   1   8 -23  342.27   13.00
  -2   8 -23  127.09   12.90
  -2  -8 -23  120.49   17.60
   2   8 -23  112.79   14.50
  -2   8 -23  112.99   12.40
  -2   8  23  132.29   16.00
   2  -8 -23  124.49   17.30
  -3   8 -23  129.29   15.10
  -3   8 -23  132.99   16.10
  -3   8  23  151.38   18.70
   3   8 -23  151.98   15.20
  -3  -8 -23  141.39   17.80
   3  -8 -23  130.49   18.10
  -3  -8 -23  115.29   17.90
  -4   8  23   64.49   23.60
  -4  -8 -23   61.49   13.80
   4   8 -23   43.60   14.80
  -4   8 -23   60.19   17.00
  -4   8 -23   58.29   13.40
  -4  -8 -23   62.69   20.80
  -4   8 -23   60.49   21.40
   4  -8 -23   54.89   18.50
  -4  -8 -23   43.30   18.10
  -4  -8  23   60.89   28.80
   5   8 -23   27.70   15.20
  -5  -8 -23   27.00   14.40
  -5   8 -23    9.20   18.10
  -5   8  23   21.60   28.70
  -5  -8 -23    9.40   18.10
  -5   8 -23    8.70   19.20
  -5   8 -23   12.90   14.30
   5  -8 -23   38.20   19.80
  -5  -8 -23    7.80   22.00
  -5   8  23   12.00   22.90
  -5  -8  23   15.70   24.50
  -1   9 -23   74.39   14.20
  -1  -9 -23   74.79   16.60
  -1   9 -23   74.29   14.90
  -1   9  23   75.99   17.10
   1   9 -23  104.89   15.10
   1  -9 -23   81.59   13.80
  -2   9  23   22.40   18.40
  -2   9 -23   21.40   15.20
  -2  -9 -23   15.30   16.10
   2   9 -23   19.10   14.90
  -2   9 -23   30.40   12.20
   2  -9 -23   25.80   16.00
  -3   9 -23   13.00   15.20
  -3  -9 -23    5.60   13.40
  -3   9 -23   -0.60   13.50
  -3  -9 -23    1.20   19.00
   3   9 -23    2.60   14.70
  -3   9  23   19.80   20.80
   3  -9 -23    5.40   14.50
  -3  -9 -23    6.40   17.90
  -4   9  23  137.79   24.70
  -4  -9 -23  105.19   16.90
   4   9 -23  106.69   16.00
  -4   9 -23  131.39   18.20
  -4   9 -23  122.39   13.50
  -4  -9 -23   63.29   20.80
  -4   9 -23  134.49   21.10
   4  -9 -23   85.79   19.10
  -4  -9 -23   83.69   19.80
  -4  -9  23   93.59   26.80
   0  10 -23   24.60   14.10
   0  10 -23   36.70   15.10
   0 -10 -23   18.10   16.10
  -1 -10 -23  143.09   18.90
  -1  10 -23  120.59   15.30
  -1  10 -23  139.39   16.00
  -1  10  23  160.38   17.60
   1  10 -23  128.89   15.80
   1 -10 -23  140.19   16.80
  -2  10  23   10.00   18.20
  -2 -10 -23    7.20   15.80
  -2  10 -23   -0.10   15.20
   2  10 -23   10.40   12.40
  -2  10 -23   16.90   14.80
   2 -10 -23    8.30   16.50
  -3 -10 -23   65.59   16.00
  -3 -10 -23   40.80   19.50
  -3  10 -23   36.80   16.60
   3  10 -23   57.69   16.10
  -3  10  23   72.29   21.30
   3 -10 -23   52.79   17.40
  -3  10 -23   75.59   12.90
  -3 -10 -23   56.29   17.70
  -4  10  23   29.80   24.10
   4  10 -23   10.60   15.90
  -4 -10 -23   14.00   19.80
  -4 -10 -23    9.00   18.30
  -4  10 -23   16.90   14.90
  -4  10 -23   15.60   16.80
  -4  10 -23    1.40   18.80
   4 -10 -23   10.20   15.10
  -4 -10 -23    9.40   19.50
  -4 -10  23    5.30   25.60
   1  11 -23   13.30   13.70
  -1  11 -23   16.50   15.10
  -1  11 -23   12.20   15.80
  -1  11  23   16.80   19.90
   1 -11 -23   15.00   16.20
   1  11 -23   15.80   15.60
  -1 -11 -23   14.90   18.00
  -2  11 -23   29.50   15.90
  -2  11  23   36.70   18.70
   2  11 -23   31.70   16.00
  -2  11 -23   49.30   12.80
   2 -11 -23   46.00   17.20
  -2 -11 -23   16.20   18.20
  -3 -11 -23    6.50   18.40
  -3  11 -23  -10.90   16.70
   3  11 -23   -1.40   15.80
  -3  11  23    8.60   21.00
   3 -11 -23    0.30   17.50
  -3  11 -23   -0.90   15.80
  -3 -11 -23    9.00   18.20
  -3 -11 -23    5.30   21.00
   0  12 -23    7.10   14.70
   0 -12 -23   22.90   16.10
   0  12 -23   16.30   16.50
   1  12 -23   42.30   14.40
  -1  12 -23   25.40   15.80
  -1  12 -23   39.80   13.60
   1 -12 -23   21.20   17.50
   1  12 -23   51.49   16.60
  -1 -12 -23   32.70   18.80
   2  12 -23   -3.60   14.60
  -2  12 -23   12.00   16.60
  -2  12  23   28.40   19.00
   2  12 -23    7.00   16.70
  -2  12 -23   15.30   16.80
  -2 -12 -23   -2.50   18.80
   0   0 -24  163.78   13.60
   1   0 -24   57.69   12.60
  -1   0 -24   58.19   13.20
  -2   0 -24 1088.39   16.90
   2   0 -24 1128.29   18.80
  -2   0  24 1237.18   20.00
   3   0 -24    3.10   12.50
  -3   0 -24   18.40   16.10
  -3   0  24    1.50   12.70
  -4   0  24   -5.20   14.40
  -4   0 -24    4.00   11.20
   4   0 -24    2.60   15.00
  -4   0 -24    7.00   17.60
  -5   0 -24   36.70   14.30
  -5   0 -24   20.70   31.40
  -5   0  24   21.00   15.20
  -5   0 -24   19.80   18.80
  -5   0 -24   15.70   23.00
   5   0 -24   18.00   15.50
  -6   0 -24   55.19   15.10
  -6   0  24   28.80   15.90
   6   0 -24   31.60   13.50
  -6   0 -24   25.00   17.40
  -6   0 -24   31.50   20.70
   1  -1 -24   12.70   13.00
   1   1 -24    6.70   12.30
  -1  -1 -24   19.90   16.00
  -1   1 -24   16.00   12.40
  -2  -1 -24   46.40   13.80
  -2   1 -24   43.60   12.00
   2  -1 -24   50.39   15.60
   2   1 -24   34.00   15.20
  -2   1  24   40.00   14.20
   3  -1 -24   36.10   12.80
   3   1 -24   43.00   14.60
  -3  -1 -24   39.60   17.00
  -3  -1  24   33.70   12.00
  -3   1  24   44.40   15.60
  -3   1 -24   36.90   16.60
   4  -1 -24  189.88   16.20
  -4  -1 -24  194.68   14.30
  -4   1 -24  181.08   11.80
   4   1 -24  171.98   15.50
  -4  -1  24  185.88   15.10
  -4  -1 -24  174.08   18.70
  -4   1 -24  185.58   17.00
  -4   1  24  169.98   13.10
  -5  -1 -24   15.30   14.20
  -5   1 -24   14.80   14.40
  -5   1  24   26.30   12.70
  -5  -1 -24   11.20   29.00
  -5  -1 -24   11.60   19.20
  -5   1 -24   14.10   23.10
  -5  -1  24   -1.30   14.60
   5  -1 -24   21.90   13.10
  -5  -1 -24    8.30   21.40
   5   1 -24   13.40   12.40
  -5   1 -24    6.40   17.90
  -6   1 -24   63.29   21.30
  -6   1  24   83.29   13.30
  -6   1 -24   88.79   15.90
  -6  -1 -24   91.59   15.80
  -6  -1 -24   71.49   28.70
  -6  -1  24   69.89   15.60
   6  -1 -24   85.99   17.30
  -6  -1 -24   94.59   21.50
   6   1 -24   66.09   13.80
  -6   1 -24   58.19   18.10
  -6  -1 -24   80.99   17.50
   0  -2 -24  836.62   19.40
   0   2 -24  886.91   17.70
  -1   2 -24   -2.20   14.90
   1  -2 -24   -5.70   16.00
   1   2 -24    4.40   14.60
  -1  -2 -24   -2.40   16.80
   2  -2 -24  137.29   16.60
  -2   2  24  123.99   18.00
  -2   2 -24  131.49   12.40
   2   2 -24  134.89   12.70
  -2  -2 -24  138.49   18.00
  -3   2 -24   38.10   13.70
  -3   2  24   33.70   13.70
   3  -2 -24   28.40   13.20
  -3  -2 -24   46.20   14.70
   3   2 -24   31.10   11.40
  -3   2 -24   32.30   15.30
  -3  -2  24   32.60   11.90
  -4  -2  24  405.96   16.00
  -4  -2 -24  422.26   12.70
  -4   2 -24  438.46   13.20
   4   2 -24  378.96   13.90
  -4  -2 -24  425.76   20.00
  -4   2  24  396.46   17.30
  -4   2 -24  377.36   15.60
   4  -2 -24  394.56   14.10
  -5   2 -24   19.40   18.10
  -5  -2 -24    9.90   13.90
  -5   2 -24   14.80   12.00
  -5  -2  24   18.90   14.20
  -5   2  24   19.10   16.10
  -5  -2 -24    1.50   19.40
  -5  -2 -24    9.20   26.50
  -5   2 -24   13.80   22.70
   5  -2 -24    1.50   16.60
  -5  -2 -24   12.20   21.00
   5   2 -24   29.60   12.00
  -6   2  24    2.00   16.70
  -6   2 -24   -9.70   20.20
  -6   2 -24    8.30   13.10
  -6  -2 -24    3.40   15.40
  -6  -2 -24    6.30   24.70
  -6  -2 -24   11.30   21.30
  -6   2  24   11.20   42.90
  -6  -2  24    5.70   40.70
   6  -2 -24   16.70   17.60
  -6   2 -24   12.30   18.30
   6   2 -24   17.60   15.90
  -6  -2  24    0.40   15.20
  -6  -2  24   -1.30   37.00
  -1   3 -24    5.30   12.00
   1  -3 -24   11.90   16.60
   1   3 -24   -3.60   14.40
  -1  -3 -24   16.40   16.70
   2  -3 -24  122.59   13.90
  -2   3 -24  106.59   12.80
   2   3 -24  118.49   11.90
  -2  -3 -24  138.89   18.60
  -2   3  24  115.29   18.80
  -3  -3 -24    5.20   14.10
  -3   3 -24  -16.50   11.60
   3  -3 -24   -1.00   13.60
   3   3 -24    0.30   11.00
  -3   3 -24   -5.20   15.20
  -3   3  24    6.70   14.30
  -4  -3 -24   45.40   11.20
  -4   3 -24   61.99   11.90
   4   3 -24   44.90   14.00
  -4  -3 -24   48.80   18.40
  -4   3  24   48.90   14.10
  -4  -3  24   46.70   11.30
  -4   3 -24   40.40   13.60
   4  -3 -24   45.50   13.50
  -5   3 -24   46.10   14.60
  -5  -3 -24   35.80   14.40
  -5   3 -24   46.00   12.60
  -5   3  24   32.30   17.10
  -5  -3 -24   44.80   19.40
  -5  -3 -24   38.50   25.30
  -5   3 -24   40.50   22.60
  -5  -3  24   41.30   11.60
   5  -3 -24   43.90   14.00
   5   3 -24   25.60   15.20
  -6   3  24  148.99   18.10
  -6  -3 -24  172.48   13.30
  -6   3 -24  194.38   17.50
  -6  -3  24  190.08   13.60
  -6   3 -24  218.98   17.50
  -6  -3 -24  202.68   22.00
  -6  -3 -24  120.29   29.20
  -6   3  24  111.79   43.00
  -6  -3  24  113.99   37.60
   6  -3 -24  153.08   15.80
  -6   3 -24  187.78   21.10
   6   3 -24  181.48   16.90
  -6  -3  24   99.59   35.60
   0  -4 -24  315.87   15.20
   0   4 -24  320.87   16.00
  -1   4 -24   19.50   11.90
   1  -4 -24   12.10   17.70
  -1   4  24   -6.40   13.80
  -1  -4 -24   -4.10   17.80
   1   4 -24    0.40   11.60
   2  -4 -24  304.47   18.50
  -2   4 -24  297.17   15.70
   2   4 -24  318.17   12.60
  -2   4  24  314.47   19.60
  -2  -4 -24  323.87   18.70
  -3   4 -24   13.80   14.50
   3  -4 -24   15.60   17.30
   3   4 -24   17.20   11.40
  -3   4 -24   12.90   15.10
  -3   4  24   15.00   15.80
  -3  -4 -24    3.80   18.50
  -4   4 -24   95.19   16.50
  -4  -4 -24  100.49   18.70
  -4  -4 -24   96.49   14.10
  -4   4 -24  104.19   15.50
   4   4 -24   69.59   14.50
  -4   4  24   83.99   15.30
   4  -4 -24   80.69   14.60
   5   4 -24   22.00   14.90
  -5   4  24   11.90   17.90
  -5  -4 -24   14.10   16.50
  -5   4 -24   13.60   12.80
  -5  -4 -24   14.00   19.50
  -5   4 -24    4.60   13.40
  -5   4 -24    8.60   21.10
  -5  -4 -24    7.80   23.00
   5  -4 -24   -1.90   14.80
  -5  -4  24   19.70   14.10
  -6  -4  24   -0.30   14.90
  -6  -4 -24    7.90   15.40
  -6   4 -24   -2.40   17.10
  -6  -4 -24   -6.20   21.10
  -6   4 -24   -5.90   15.90
  -6  -4 -24    6.20   27.50
  -6   4  24    4.70   37.80
   6  -4 -24    4.00   15.40
  -6   4 -24    7.80   20.30
  -6  -4  24    2.80   31.80
   6   4 -24    9.70   12.30
  -1   5 -24   28.10   11.60
   1  -5 -24   18.40   17.70
  -1   5  24    9.00   16.90
  -1  -5 -24   24.70   14.20
   1   5 -24   26.30   14.30
   2  -5 -24   17.40   17.90
  -2   5  24   37.80   18.90
  -2   5 -24   21.30   12.10
   2   5 -24   23.10   14.30
  -2  -5 -24   10.40   17.90
  -3   5 -24   10.60   14.60
   3   5 -24   14.20   14.20
  -3   5  24   10.90   17.20
  -3   5 -24   -0.10   14.90
  -3  -5 -24    9.10   17.40
   3  -5 -24   11.90   14.80
  -4   5 -24  201.88   14.30
  -4  -5 -24  204.08   14.90
  -4   5 -24  221.88   13.50
   4   5 -24  203.38   12.70
  -4   5  24  241.18   20.10
   4  -5 -24  204.88   18.60
  -4  -5 -24  226.08   20.20
  -5  -5 -24   11.30   19.80
   5   5 -24    4.60   15.10
  -5   5  24   12.10   18.80
  -5  -5 -24   10.30   14.40
  -5   5 -24    3.00   16.40
  -5   5 -24    6.80   17.50
  -5   5 -24    5.20   21.80
  -5  -5 -24    6.70   23.70
   5  -5 -24    0.50   15.40
   0  -6 -24   31.70   17.20
   0   6 -24   37.50   14.40
   1  -6 -24    2.40   17.70
  -1   6 -24   -3.00   14.20
  -1   6  24   -1.50   14.60
  -1  -6 -24   -0.10   17.40
   1   6 -24   12.70   14.40
  -2   6 -24  308.97   16.30
   2  -6 -24  284.17   18.60
  -2   6  24  281.27   19.80
  -2   6 -24  321.57   15.40
  -2  -6 -24  349.17   19.70
   2   6 -24  299.47   15.70
  -3   6 -24   21.50   15.40
   3   6 -24   12.20   11.60
  -3   6  24   14.00   23.50
  -3  -6 -24   19.50   18.50
  -3   6 -24   23.60   12.30
   3  -6 -24   13.60   17.80
  -4  -6 -24    3.70   13.90
  -4   6 -24    7.90   16.30
  -4   6 -24   -2.20   16.20
   4   6 -24    5.50   14.30
  -4   6  24    9.50   18.60
  -4  -6 -24    4.00   19.00
   4  -6 -24   14.40   14.50
  -4  -6 -24    6.00   22.90
   5   6 -24   -3.80   15.40
  -5  -6 -24    3.20   14.40
  -5   6 -24    0.70   13.60
  -5   6 -24    4.60   17.60
  -5   6 -24   10.60   21.10
   5  -6 -24  -12.40   20.30
  -5  -6 -24    2.70   22.30
  -5  -6 -24    4.40   19.20
  -5  -6  24    2.70   39.40
  -5   6  24    0.60   16.50
   1  -7 -24   98.79   17.40
  -1   7 -24   89.09   11.60
  -1  -7 -24   91.09   17.80
  -1   7  24  109.59   17.90
   1   7 -24  105.39   15.00
  -2   7 -24   33.50   15.30
  -2   7  24   25.40   16.20
  -2  -7 -24   24.40   18.10
  -2   7 -24   29.80   12.30
   2   7 -24   33.10   14.60
   2  -7 -24   39.80   17.20
  -3   7 -24   -0.30   15.40
   3   7 -24   15.40   14.20
  -3  -7 -24   -4.20   18.20
  -3   7  24   24.10   22.50
  -3   7 -24    3.20   14.80
   3  -7 -24    8.70   17.40
  -4  -7 -24   11.00   13.60
  -4   7 -24    5.00   13.20
  -4   7 -24    7.20   16.50
   4   7 -24    5.50   14.20
  -4   7  24   13.70   22.30
  -4  -7 -24   12.00   21.10
   4  -7 -24  -10.80   17.80
  -4  -7 -24    2.10   21.20
   5   7 -24   28.60   15.40
  -5  -7 -24   24.80   16.50
  -5   7 -24   11.80   18.10
  -5   7 -24    2.10   18.30
  -5   7 -24   30.20   20.30
  -5  -7 -24   20.50   19.00
   5  -7 -24   32.70   16.50
  -5  -7 -24   22.70   22.80
  -5  -7  24   22.90   32.80
  -5   7  24   30.60   21.30
   0   8 -24   62.39   14.70
   0  -8 -24   66.39   17.20
   1  -8 -24   40.80   17.00
  -1   8 -24   35.00   14.20
  -1  -8 -24   45.90   17.20
  -1   8 -24   40.80   12.00
  -1   8  24   44.90   17.80
   1   8 -24   31.30   14.80
  -2   8 -24    7.10   13.00
  -2   8  24   18.30   16.40
  -2  -8 -24    0.40   20.10
   2   8 -24    8.60   14.20
  -2   8 -24  -15.10   15.40
   2  -8 -24    2.30   17.10
  -3   8 -24    7.30   16.10
   3   8 -24    6.60   14.50
  -3  -8 -24    2.10   17.80
  -3   8  24   -1.30   21.70
   3  -8 -24   -1.30   17.60
  -3   8 -24   -3.40   15.20
  -4  -8 -24   17.30   14.10
  -4   8 -24    1.70   13.60
   4   8 -24   18.80   15.30
  -4   8 -24    3.40   17.40
  -4   8  24   -5.70   24.20
  -4  -8 -24    1.70   20.70
   4  -8 -24   14.90   18.80
  -4  -8 -24    7.80   19.70
  -1   9 -24   21.20   14.40
  -1  -9 -24   18.60   16.40
  -1   9 -24    8.40   12.20
  -1   9  24   13.70   17.40
   1   9 -24   25.90   14.90
   1  -9 -24    1.80   13.50
  -2   9 -24   -5.80   15.60
  -2  -9 -24   -7.30   19.70
  -2   9  24   11.50   19.20
  -2   9 -24  -11.40   12.70
   2   9 -24   -1.70   14.90
   2  -9 -24   11.30   16.60
  -3  -9 -24  102.69   16.60
  -3   9 -24   99.09   14.30
  -3  -9 -24  110.49   20.10
   3   9 -24   96.59   15.80
  -3   9  24  115.29   22.40
   3  -9 -24  111.29   15.20
  -3   9 -24   90.29   16.10
  -4   9 -24   10.40   13.80
  -4  -9 -24   12.20   16.40
   4   9 -24    9.90   16.00
  -4   9  24   15.60   24.50
  -4   9 -24   33.40   18.10
  -4  -9 -24    5.10   20.40
   4  -9 -24   15.40   19.00
  -4  -9 -24    7.90   20.40
   0  10 -24   10.50   14.70
   0 -10 -24    9.50   16.70
   0  10 -24   26.10   16.20
  -1 -10 -24   41.10   19.00
  -1  10 -24   27.30   14.80
  -1  10 -24   49.99   15.80
   1  10 -24   49.50   15.60
   1 -10 -24   31.50   17.30
  -2 -10 -24   13.40   19.30
  -2  10 -24   -6.00   16.00
  -2  10  24   -0.80   18.90
   2  10 -24    0.00   13.00
  -2  10 -24    0.90   16.10
   2 -10 -24   20.30   17.20
  -3 -10 -24   62.39   16.70
  -3 -10 -24   40.00   20.20
  -3  10 -24   48.90   17.20
   3  10 -24   46.40   16.50
  -3  10  24    8.60   21.90
   3 -10 -24   24.40   18.50
  -3  10 -24   68.99   14.00
   1  11 -24   13.70   14.50
  -1  11 -24   15.60   15.10
  -1  11 -24    0.20   16.10
   1  11 -24    1.30   16.50
   1 -11 -24   12.80   16.80
  -1 -11 -24   -0.30   18.80
  -2  11 -24    5.90   16.40
   2  11 -24   12.90   16.20
  -2  11 -24    9.80   16.50
  -2  11  24   11.10   19.70
   2 -11 -24   -4.30   17.40
  -2 -11 -24    1.00   18.70
   1  -1 -25  -12.30   13.90
   1   1 -25   21.20   12.70
  -1  -1 -25   11.40   16.50
  -1   1 -25   15.40   16.60
  -2  -1 -25   21.80   16.80
  -2   1 -25   38.80   16.20
   2  -1 -25   27.60   13.50
   2   1 -25   42.20   15.40
  -2   1  25   25.70   17.70
  -3   1 -25   33.30   12.00
   3  -1 -25   25.00   16.00
  -3  -1 -25   49.90   18.40
   3   1 -25   34.10   12.30
  -3   1 -25   27.20   16.80
  -3  -1  25   25.20   12.40
  -3   1  25   26.70   16.70
   4  -1 -25   20.40   16.20
  -4   1  25   30.30   13.00
  -4  -1 -25   34.70   14.30
  -4   1 -25   34.30   12.30
   4   1 -25   29.10   15.10
  -4  -1 -25   24.40   19.40
  -4   1 -25   19.00   18.70
  -4  -1  25   15.80   12.30
  -5  -1 -25    1.00   14.50
  -5   1 -25   -1.00   15.40
  -5  -1  25    5.90   14.60
  -5  -1 -25    8.60   20.70
  -5   1  25   11.80   13.00
  -5   1 -25   14.00   16.40
   5  -1 -25   -0.30   13.50
   5   1 -25   21.20   15.30
   6  -1 -25   11.50   17.30
  -6   1 -25   10.10   23.30
   0  -2 -25   23.60   16.80
   0   2 -25   12.60   15.50
   1  -2 -25   11.60   13.80
   1   2 -25   17.30   15.80
  -1  -2 -25   15.00   14.00
  -1   2 -25   12.20   12.70
  -2   2 -25   97.39   12.70
   2  -2 -25  105.09   13.50
   2   2 -25  103.19   12.50
  -2   2  25  129.09   18.10
  -2  -2 -25  119.39   15.30
  -3   2 -25   18.40   11.90
  -3  -2 -25    8.70   18.20
   3  -2 -25    9.10   13.20
   3   2 -25   15.60   15.00
  -3   2  25   14.20   13.90
  -3   2 -25   -3.80   16.40
  -4  -2 -25   11.10   14.10
  -4   2 -25   -8.30   12.40
   4   2 -25    5.40   14.70
  -4  -2 -25    6.00   19.10
  -4   2 -25    1.50   14.20
  -4  -2  25   14.30   14.90
  -4   2  25   28.10   16.70
   4  -2 -25    2.10   16.80
  -5  -2 -25   15.60   15.00
  -5   2 -25   -0.60   12.10
  -5  -2 -25   26.40   20.70
  -5   2  25   12.90   16.60
  -5  -2  25   12.00   15.10
  -5   2 -25    4.70   18.80
   5  -2 -25    4.30   16.90
   5   2 -25    8.20   15.70
  -1   3 -25   -2.00   15.20
   1  -3 -25   15.30   17.10
   1   3 -25    7.30   15.00
  -1  -3 -25   17.30   18.20
   2  -3 -25   14.70   16.90
  -2   3 -25   25.40   15.50
   2   3 -25   16.20   11.90
  -2   3  25    0.10   18.50
  -2  -3 -25    2.10   15.40
  -3   3 -25   42.10   14.70
   3  -3 -25   46.10   16.70
  -3   3  25   57.69   14.60
   3   3 -25   53.09   14.10
  -3   3 -25   65.89   15.70
  -3  -3 -25   56.39   19.20
  -4  -3 -25   11.40   14.10
  -4  -3 -25   18.10   15.10
  -4   3 -25   -2.00   14.90
   4   3 -25    5.50   14.80
  -4   3  25    4.60   14.00
  -4  -3  25    8.00   14.60
  -4   3 -25   18.20   13.50
   4  -3 -25   14.80   13.80
  -5  -3 -25   32.00   14.70
  -5   3 -25   25.30   12.40
  -5  -3 -25   33.70   20.30
  -5   3  25   30.60   17.80
  -5  -3  25   33.10   14.90
   5  -3 -25   28.00   14.60
  -5   3 -25   22.00   15.00
   5   3 -25   20.30   15.60
   0  -4 -25  344.27   20.20
   0   4 -25  345.47   13.60
  -1   4 -25   12.00   14.80
   1  -4 -25    8.20   17.70
  -1  -4 -25    4.20   18.60
   1   4 -25   -1.00   14.50
   2  -4 -25   14.80   14.80
  -2   4  25   26.90   19.50
  -2   4 -25    6.30   15.40
   2   4 -25   28.10   12.40
  -2  -4 -25   27.80   15.00
  -3   4  25   30.10   16.30
  -3   4 -25   38.80   12.60
   3  -4 -25   48.70   17.90
   3   4 -25   53.29   14.30
  -3   4 -25   35.70   16.20
  -3  -4 -25   48.90   18.50
  -4  -4 -25  150.68   15.30
  -4   4 -25  130.39   16.30
   4   4 -25  141.59   13.20
  -4   4  25  114.69   19.50
  -4   4 -25  122.29   14.50
   4  -4 -25  126.19   18.80
  -4  -4 -25  131.29   20.40
  -5   4 -25   21.40   15.30
  -5  -4 -25   31.20   20.50
  -5  -4 -25   17.50   15.30
  -5   4 -25    5.70   13.50
  -5   4  25   25.00   18.70
  -5  -4  25   24.30   14.70
   5  -4 -25   15.50   15.60
   5   4 -25   21.20   12.70
  -1   5 -25   93.69   15.60
   1  -5 -25   96.39   15.90
  -1  -5 -25  100.79   15.80
   1   5 -25   96.09   15.10
   2  -5 -25   -0.30   18.40
  -2   5 -25   11.90   15.20
   2   5 -25    9.30   11.70
  -2  -5 -25   -2.30   18.60
  -2   5  25    8.10   20.20
  -3   5 -25   21.80   12.90
   3   5 -25   19.70   12.30
  -3   5 -25   25.00   15.60
  -3  -5 -25   18.40   18.90
  -3   5  25   41.60   17.30
   3  -5 -25   11.40   14.90
  -4  -5 -25    9.20   14.40
  -4   5 -25   32.50   13.70
   4   5 -25   13.00   15.00
  -4   5  25   17.20   20.60
  -4   5 -25    9.70   13.20
  -4  -5 -25   13.40   19.70
   4  -5 -25  -11.80   19.10
   5   5 -25  105.79   16.30
  -5   5 -25   64.09   19.40
  -5  -5 -25  106.89   18.10
  -5   5 -25  117.39   17.60
  -5   5  25  107.69   17.50
  -5   5 -25  124.09   35.80
   5  -5 -25  117.79   16.50
  -5  -5 -25  136.69   31.30
  -5  -5 -25  164.88   24.70
   0  -6 -25  347.17   19.40
   0   6 -25  328.47   16.50
   1  -6 -25   16.00   17.70
  -1   6 -25   22.80   12.20
  -1  -6 -25    4.00   18.20
   1   6 -25    3.10   12.10
  -2   6 -25  216.68   16.50
   2  -6 -25  195.88   19.00
  -2   6 -25  238.38   13.70
  -2  -6 -25  219.88   19.60
   2   6 -25  221.58   15.70
  -2   6  25  248.78   21.10
  -3   6 -25   27.40   16.20
   3   6 -25    8.40   14.80
  -3  -6 -25   12.90   19.10
  -3   6 -25    2.20   12.90
  -3   6  25   21.90   24.00
   3  -6 -25    2.90   18.70
  -4  -6 -25   49.80   14.40
  -4   6 -25   49.50   16.80
   4   6 -25   60.69   12.60
  -4   6  25  -15.50   19.40
  -4  -6 -25   74.99   20.20
   4  -6 -25   42.30   16.50
  -4   6 -25   50.99   17.10
   5   6 -25   26.10   16.00
  -5   6 -25   29.60   15.50
  -5  -6 -25   25.70   15.00
  -5   6  25   31.00   22.20
  -5   6 -25   22.50   15.00
  -5   6 -25   39.00   30.00
   5  -6 -25   42.50   21.10
  -5  -6 -25    5.60   20.90
  -5  -6 -25   35.20   26.60
   1  -7 -25    8.60   17.40
  -1   7 -25    4.10   15.60
  -1  -7 -25    3.10   18.00
   1   7 -25    2.70   14.90
  -2   7 -25   -2.50   12.60
  -2  -7 -25    4.60   18.10
  -2   7 -25    0.60   15.20
   2   7 -25   -0.40   15.20
  -2   7  25   -6.40   16.40
   2  -7 -25    6.20   18.00
  -3   7 -25  123.39   16.90
   3   7 -25  138.19   16.20
  -3  -7 -25  129.49   20.30
  -3   7 -25  122.99   16.50
  -3   7  25  192.08   24.30
   3  -7 -25  120.79   19.60
  -4  -7 -25   25.70   16.50
   4   7 -25   15.60   13.00
  -4   7 -25   16.60   17.30
  -4   7  25   16.10   24.30
  -4  -7 -25    1.00   19.30
   4  -7 -25   13.90   19.80
  -4   7 -25   11.20   14.00
   0  -8 -25  170.48   18.20
   0   8 -25  179.88   16.10
   1  -8 -25    2.70   17.20
  -1   8 -25   13.50   11.80
  -1  -8 -25    6.00   17.50
  -1   8 -25   -4.60   15.60
   1   8 -25    0.00   15.30
  -2   8 -25  245.48   17.30
  -2  -8 -25  213.48   19.90
  -2   8 -25  208.48   16.50
   2   8 -25  225.48   16.80
  -2   8  25  262.17   17.90
   2  -8 -25  259.17   16.70
  -3   8 -25   11.90   14.20
   3   8 -25   18.90   15.80
  -3  -8 -25   11.40   18.60
  -3   8 -25   11.30   16.30
   3  -8 -25   20.30   19.10
  -3   8  25   24.10   23.30
  -4  -8 -25    9.90   16.70
   4   8 -25   17.10   15.80
  -4   8 -25   16.20   18.30
  -4  -8 -25    6.60   19.00
   4  -8 -25    8.90   20.10
  -4   8 -25    5.60   14.40
  -1   9 -25   13.90   12.30
  -1  -9 -25    0.10   17.60
  -1   9 -25   13.90   16.20
   1   9 -25   -2.30   16.50
   1  -9 -25    0.00   17.00
  -2   9 -25   -3.10   13.00
  -2  -9 -25   -1.10   17.60
  -2   9 -25    9.10   15.90
   2   9 -25   14.50   15.90
   2  -9 -25   19.90   17.90
  -2   9  25    2.30   20.10
  -3  -9 -25   81.89   15.20
  -3   9 -25   81.19   14.90
  -3  -9 -25   79.19   18.80
   3   9 -25   68.09   13.70
  -3   9 -25   81.79   17.30
   3  -9 -25   87.39   15.80
  -3   9  25   47.80   22.90
   0  10 -25   98.69   15.20
   0 -10 -25   75.29   18.50
   0  10 -25  108.09   17.50
  -1  10 -25   -0.60   15.40
  -1  10 -25   12.10   13.60
   1  10 -25    2.30   13.20
   1 -10 -25   29.40   18.00
  -1 -10 -25   -0.30   16.90
  -2 -10 -25   30.60   17.60
  -2  10 -25   37.80   16.50
  -2  10 -25   45.00   14.00
   2  10 -25   39.50   13.90
   2 -10 -25   30.00   18.30
  -2  10  25   20.70   20.50
   0   0 -26  114.19   13.30
   1   0 -26   10.50   13.80
  -1   0 -26   19.30   13.90
  -2   0 -26   10.90   14.10
   2   0 -26    8.40   13.20
  -3   0 -26   22.60   15.20
   3   0 -26   -3.00   13.20
  -3   0  26   27.70   16.50
  -4   0  26   27.10   15.80
   4   0 -26   14.30   15.80
  -4   0 -26   14.10   15.30
  -4   0 -26   17.10   19.80
  -5   0 -26   -0.90   12.60
  -5   0  26   12.70   16.20
  -5   0 -26  -12.80   21.10
   5   0 -26   10.90   16.20
   1  -1 -26    2.00   13.60
   1   1 -26    5.20   13.10
  -1  -1 -26   14.30   14.40
  -1   1 -26   17.40   13.70
  -2   1 -26  141.69   17.20
   2  -1 -26  171.68   17.60
   2   1 -26  172.18   16.60
  -2  -1 -26  163.28   19.30
  -3   1 -26   59.59   14.60
  -3  -1 -26   60.59   15.60
   3  -1 -26   70.39   16.60
   3   1 -26   58.69   16.00
  -3   1 -26   52.39   14.70
  -3   1  26   69.99   14.10
   4  -1 -26  171.18   14.70
  -4  -1 -26  214.08   13.20
   4   1 -26  226.88   14.30
  -4   1 -26  212.38   16.50
  -4  -1 -26  181.28   21.00
  -4  -1  26  204.78   14.00
  -4   1  26  205.38   17.60
  -4   1 -26  162.38   19.50
  -5  -1 -26    2.50   15.50
  -5   1 -26    3.50   15.80
  -5  -1 -26    4.30   17.70
  -5   1 -26    7.20   16.40
  -5  -1  26   12.10   15.90
  -5   1  26    6.00   13.80
   5  -1 -26   -4.40   14.00
   5   1 -26    4.50   16.50
   0  -2 -26   22.50   17.90
   0   2 -26    2.80   13.10
   1  -2 -26   17.00   14.30
   1   2 -26   22.90   15.80
  -1  -2 -26   29.90   17.90
  -1   2 -26   33.60   16.30
  -2   2 -26  102.79   16.20
   2  -2 -26   94.49   17.20
   2   2 -26   93.29   13.10
  -2   2  26  129.49   15.50
  -2  -2 -26  101.49   19.20
  -3  -2 -26   14.90   20.00
  -3   2 -26   -1.20   14.60
   3  -2 -26   -3.30   17.00
   3   2 -26    5.60   15.30
  -3   2 -26    3.40   16.60
  -3   2  26   16.00   14.50
  -4  -2 -26    8.10   14.70
   4   2 -26   -7.50   12.80
  -4   2 -26    5.80   15.20
  -4  -2 -26    5.30   16.40
  -4   2  26   11.70   17.70
  -4   2 -26    6.90   15.30
  -4  -2  26   12.90   12.40
   4  -2 -26  -23.20   17.40
  -5  -2 -26    1.40   15.50
  -5   2 -26   16.10   16.80
  -5  -2 -26   -4.30   21.50
  -5  -2  26   17.30   15.30
  -5   2 -26   -6.80   20.70
  -5   2  26    7.50   17.50
   5  -2 -26   26.90   17.50
   5   2 -26   12.30   15.90
   1  -3 -26  136.49   18.30
  -1  -3 -26  118.19   16.30
   1   3 -26  132.89   16.10
  -1   3 -26  136.49   16.40
   2  -3 -26   65.69   15.00
  -2   3 -26   60.19   16.60
  -2   3  26   56.69   16.20
   2   3 -26   64.19   15.40
  -2  -3 -26   52.99   19.20
  -3   3 -26   28.80   13.00
   3  -3 -26   56.79   18.00
   3   3 -26   44.00   15.00
  -3   3 -26   24.70   16.70
  -3   3  26   56.49   19.20
  -3  -3 -26   29.20   20.20
  -4  -3 -26  185.78   21.30
  -4  -3 -26  220.98   16.30
  -4   3 -26  197.58   16.90
   4   3 -26  194.48   13.70
  -4   3 -26  199.78   16.20
  -4   3  26  183.18   16.30
   4  -3 -26  173.28   18.40
  -5  -3 -26   87.79   18.00
  -5  -3 -26   89.99   16.20
  -5   3 -26   98.79   14.30
  -5   3  26   59.19   18.80
  -5   3 -26   45.80   20.30
  -5  -3  26   92.89   16.30
   5  -3 -26   95.59   19.10
   5   3 -26   76.69   14.40
   0  -4 -26  191.48   20.80
   0   4 -26  178.58   16.40
  -1   4 -26    0.70   12.60
   1  -4 -26    5.90   15.60
  -1  -4 -26   -5.50   19.10
   1   4 -26    0.70   15.70
   2  -4 -26   12.00   18.40
  -2   4 -26    0.80   16.30
   2   4 -26   -2.10   12.40
  -2  -4 -26   12.50   19.30
  -2   4  26   16.90   16.40
   3  -4 -26   14.30   15.00
  -3   4 -26   28.20   16.20
   3   4 -26    9.80   15.00
  -3   4  26    0.50   17.20
  -3   4 -26   -7.50   16.80
  -3  -4 -26   -9.50   19.60
  -4  -4 -26    8.50   14.80
  -4   4 -26   21.70   16.90
   4   4 -26   28.70   16.00
  -4   4 -26   35.80   15.20
  -4   4  26   46.90   19.40
   4  -4 -26   40.10   19.10
  -4  -4 -26   21.40   20.20
  -5  -4 -26    0.70   15.50
  -5   4 -26   -2.70   14.10
   5  -4 -26    8.50   15.90
  -5   4 -26   17.70   19.70
  -1   5 -26   63.69   15.90
   1  -5 -26   58.99   19.00
  -1  -5 -26   54.79   15.90
   1   5 -26   60.89   15.70
  -2   5 -26  104.89   13.30
   2  -5 -26   87.29   16.20
  -2   5 -26   89.89   16.30
   2   5 -26   86.39   12.50
  -2  -5 -26   70.09   19.40
  -2   5  26   96.39   21.20
  -3   5 -26  123.59   13.90
  -3   5  26  118.29   17.90
   3   5 -26   96.39   12.50
  -3   5 -26   96.59   16.70
  -3  -5 -26   92.29   20.30
   3  -5 -26   93.99   20.60
  -4  -5 -26   57.39   15.40
  -4   5 -26   62.59   17.30
   4   5 -26   50.69   12.70
  -4   5 -26   57.59   14.60
  -4   5  26   41.20   21.70
  -4  -5 -26   28.20   21.20
   4  -5 -26   45.20   20.20
   0  -6 -26   14.40   15.00
   0   6 -26   -6.60   16.20
  -1   6 -26   19.10   15.80
   1  -6 -26   -0.70   18.70
  -1  -6 -26    6.70   18.50
   1   6 -26   -1.00   12.20
  -2   6 -26   33.30   13.20
   2  -6 -26   40.10   15.20
  -2   6  26   33.10   17.60
  -2   6 -26   35.00   12.90
  -2  -6 -26   58.29   20.10
   2   6 -26   39.00   15.70
  -3   6 -26   15.80   13.50
  -3   6  26   27.00   24.40
   3   6 -26   20.30   15.60
  -3   6 -26   19.80   13.70
  -3  -6 -26   16.50   20.50
   3  -6 -26   23.30   15.90
  -4  -6 -26    3.10   15.10
  -4   6 -26    6.20   14.50
   4   6 -26   -5.50   15.30
  -4   6  26    8.90   19.20
  -4  -6 -26    0.70   21.10
  -4   6 -26   -3.30   17.90
   4  -6 -26   -3.30   16.90
   1  -7 -26   23.30   18.40
  -1   7 -26   12.90   16.40
  -1  -7 -26    3.90   18.70
   1   7 -26   29.50   12.90
  -2   7 -26    8.60   16.20
  -2   7  26   30.30   17.40
  -2  -7 -26   16.20   19.30
  -2   7 -26   -0.80   15.80
   2   7 -26   17.40   15.80
   2  -7 -26    7.70   15.40
  -3   7 -26   -0.70   14.30
  -3   7  26    8.80   24.10
   3   7 -26    3.20   15.60
  -3  -7 -26    4.80   19.70
  -3   7 -26   15.60   16.80
   3  -7 -26   13.20   19.10
   0  -8 -26    6.20   17.80
   0   8 -26    3.90   16.50
   1  -8 -26   41.60   18.90
  -1   8 -26   37.20   15.90
  -1   8 -26   41.40   16.60
  -1  -8 -26   59.89   19.30
   1   8 -26   75.59   16.60
  -2   8 -26    5.10   16.50
  -2  -8 -26   -1.50   19.40
  -2   8  26    7.30   17.40
  -2   8 -26   11.70   16.60
   2   8 -26    5.60   15.90
   2  -8 -26   18.30   18.70
  -3  -8 -26   46.00   15.70
  -3   8 -26   47.60   14.90
  -3   8  26   55.49   24.30
   3   8 -26   36.40   16.40
  -3  -8 -26   13.20   19.90
  -3   8 -26   39.70   17.40
   3  -8 -26   34.50   19.30
  -1   9 -26   11.30   16.30
  -1  -9 -26   12.50   17.90
  -1   9 -26    7.60   17.00
   1   9 -26   13.50   13.50
   1  -9 -26    5.60   18.50
  -2   9 -26    7.30   16.60
  -2  -9 -26    1.80   18.70
  -2   9 -26    0.70   17.00
   2   9 -26    6.80   16.40
  -2   9  26    0.30   21.00
   2  -9 -26    2.40   19.20
   0  10 -26   12.70   15.70
   0  10 -26   33.20   17.70
   0 -10 -26    5.00   21.40
   1  -1 -27   23.20   17.30
   1   1 -27    8.60   17.00
  -1  -1 -27   15.80   17.80
  -1   1 -27   11.50   17.20
  -2   1 -27   20.60   14.20
   2  -1 -27   11.60   17.10
   2   1 -27   12.60   13.50
  -2  -1 -27   10.20   15.60
  -3  -1 -27    2.80   16.50
  -3   1 -27    6.00   13.40
   3  -1 -27   15.10   17.20
  -3   1 -27   21.60   14.90
   3   1 -27   13.80   15.90
  -3   1  27   12.50   14.60
  -4   1  27   -7.90   17.40
   4  -1 -27   20.10   17.50
  -4  -1 -27    6.90   15.90
   4   1 -27   13.10   16.30
  -4   1 -27   13.50   15.90
  -4  -1 -27    9.50   21.60
  -4   1 -27   -2.80   19.80
  -4  -1  27   -1.40   12.80
   0  -2 -27  194.68   18.80
   0   2 -27  213.28   17.70
   1  -2 -27   26.90   14.80
   1   2 -27   24.50   13.70
  -1  -2 -27   24.30   18.90
  -1   2 -27   26.90   14.30
  -2   2 -27   30.30   17.70
   2  -2 -27   37.10   17.90
   2   2 -27   28.80   13.10
  -2  -2 -27   27.50   16.00
  -3   2 -27   23.00   13.30
   3  -2 -27   31.10   14.60
   3   2 -27   33.50   13.50
  -3   2 -27   48.10   18.30
  -3   2  27   28.70   18.40
  -3  -2 -27   24.50   20.00
  -4  -2 -27   39.70   18.50
  -4  -2 -27   57.79   16.40
   4   2 -27   51.29   16.60
  -4   2 -27   61.39   16.50
  -4   2 -27   50.19   16.40
  -4   2  27   55.19   18.40
   4  -2 -27   46.40   15.00
   1  -3 -27   31.60   14.60
  -1  -3 -27   28.40   16.00
   1   3 -27   36.10   16.10
  -1   3 -27   16.90   14.10
  -2   3 -27    8.40   13.40
   2  -3 -27    2.20   18.20
   2   3 -27   17.60   16.20
  -2  -3 -27   27.50   20.00
  -3   3 -27    6.90   16.50
   3  -3 -27   19.90   15.20
   3   3 -27    3.50   13.00
  -3   3 -27    0.10   14.40
  -3   3  27   12.20   19.60
  -3  -3 -27   -2.90   16.50
  -4  -3 -27   30.70   15.80
  -4   3 -27   42.10   13.80
   4   3 -27   12.60   16.30
  -4   3  27   32.30   19.40
  -4   3 -27   48.50   15.70
   4  -3 -27   22.80   15.40
  -4  -3 -27   27.80   21.60
   0  -4 -27   39.70   20.20
   0   4 -27   15.40   13.10
   1  -4 -27   89.19   20.10
  -1  -4 -27  108.09   17.30
   1   4 -27  115.59   16.70
  -1   4 -27   94.49   13.90
   2  -4 -27  171.98   17.10
  -2   4 -27  182.68   15.20
   2   4 -27  181.88   14.30
  -2  -4 -27  179.98   21.20
  -2   4  27  186.68   18.50
   3  -4 -27   26.50   19.10
  -3   4 -27   39.20   14.00
   3   4 -27   43.70   16.00
  -3   4 -27   32.70   14.30
  -3  -4 -27   44.80   20.90
  -3   4  27   55.89   21.90
  -4  -4 -27    0.40   16.20
  -4   4 -27   -4.90   14.10
   4   4 -27   -1.40   13.30
  -4   4  27   14.80   21.10
  -4   4 -27    5.90   15.10
  -4  -4 -27   14.20   21.70
   4  -4 -27    7.60   16.50
   1  -5 -27   22.30   19.30
  -1  -5 -27    7.60   16.70
   1   5 -27   18.80   13.10
  -1   5 -27   17.70   13.50
  -2   5 -27    9.30   16.90
   2  -5 -27   17.40   19.70
  -2   5 -27   19.20   16.90
   2   5 -27    5.60   12.80
  -2  -5 -27   21.10   20.70
  -2   5  27   30.20   21.70
  -3   5 -27   30.80   17.50
   3   5 -27   29.90   16.20
  -3   5 -27   24.00   18.10
  -3  -5 -27   61.79   21.10
  -3   5  27   64.19   20.00
   3  -5 -27   37.20   21.30
  -4  -5 -27   36.10   16.10
  -4   5 -27   63.69   18.20
   4   5 -27   49.80   16.80
  -4   5 -27   38.30   15.70
  -4  -5 -27   38.50   21.60
   4  -5 -27   29.40   17.90
   0  -6 -27  121.59   20.00
   0   6 -27  156.08   17.30
  -1   6 -27  164.88   17.90
   1  -6 -27  163.78   20.00
  -1  -6 -27  155.28   20.70
   1   6 -27  127.99   17.10
   2  -6 -27   13.20   19.70
  -2   6 -27    7.00   17.20
  -2   6 -27   21.50   16.70
  -2   6  27   21.50   17.40
  -2  -6 -27  -10.60   20.10
   2   6 -27   19.70   16.10
  -3   6 -27   82.19   18.00
   3   6 -27   82.59   16.60
  -3   6 -27   69.89   14.70
  -3  -6 -27   75.39   21.80
  -3   6  27   56.69   27.30
   3  -6 -27   60.79   21.60
  -1   7 -27  -16.40   14.10
   1  -7 -27   13.80   19.30
  -1  -7 -27    7.60   16.00
   1   7 -27    6.80   13.60
  -2   7 -27   43.30   17.40
  -2   7 -27   26.60   17.20
  -2  -7 -27   44.50   21.20
  -2   7  27   36.50   18.70
   2   7 -27   25.40   16.50
   2  -7 -27   30.50   20.10
  -3   7 -27   22.00   18.70
  -3  -7 -27   11.50   20.70
  -3   7 -27    7.90   18.20
   3  -7 -27   15.00   17.20
   0  -8 -27   -7.90   15.60
   0   8 -27    2.60   17.50
  -1   8 -27  106.09   13.60
  -1   8 -27  102.49   14.60
  -1  -8 -27  130.49   20.30
   1   8 -27  124.59   14.70
   1  -8 -27  116.09   20.10
  -2   8 -27   18.10   14.50
  -2  -8 -27   33.90   19.60
  -2   8 -27   33.20   18.20
  -2   8  27   14.30   18.20
   2   8 -27   25.60   16.80
   2  -8 -27   31.60   20.00
   0   0 -28  349.96   20.40
   1   0 -28  118.99   15.30
  -1   0 -28  116.99   15.60
   2   0 -28  188.98   18.70
  -2   0 -28  195.38   20.90
  -3   0 -28   -2.50   16.80
  -3   0 -28    7.20   20.40
   3   0 -28   20.60   17.40
   4   0 -28   80.79   18.50
  -4   0 -28  110.19   17.70
  -4   0 -28  104.59   23.10
  -4   0  28   73.19   15.10
   1  -1 -28   21.20   18.60
   1   1 -28   32.00   17.50
  -1  -1 -28   24.70   18.80
  -1   1 -28   18.10   14.90
   2  -1 -28   12.00   17.60
   2   1 -28    3.10   14.00
  -2  -1 -28   -8.60   18.70
  -2   1 -28   21.10   18.80
  -3  -1 -28   10.50   13.10
  -3   1 -28    6.90   17.30
  -3   1 -28   14.60   16.70
   3  -1 -28    9.10   14.50
   3   1 -28    7.70   13.50
  -3  -1 -28   14.40   20.80
   4   1 -28    0.00   13.50
  -4  -1 -28    1.80   13.30
  -4  -1 -28   -2.00   22.10
  -4   1 -28    4.30   17.40
  -4   1 -28    6.20   21.80
  -4   1  28    4.10   18.40
   4  -1 -28   -1.70   14.90
   0  -2 -28  271.77   20.10
   0   2 -28  253.37   18.70
   1  -2 -28   59.29   19.00
   1   2 -28   70.09   14.30
  -1  -2 -28   63.39   16.40
  -1   2 -28   73.29   18.40
  -2   2 -28  174.88   16.10
   2  -2 -28  173.68   16.30
   2   2 -28  155.88   17.70
  -2  -2 -28  187.68   21.40
  -3   2 -28   56.89   17.30
  -3   2  28   65.49   20.20
   3  -2 -28   63.49   18.80
  -3   2 -28   91.69   19.60
   3   2 -28   59.79   14.40
  -3  -2 -28   71.29   18.20
  -4  -2 -28   77.19   22.90
  -4  -2 -28   58.79   16.80
   4   2 -28   26.00   14.60
  -4   2 -28   85.99   14.80
  -4   2 -28   70.99   17.30
   4  -2 -28   38.20   19.30
   1  -3 -28   43.90   15.90
   1   3 -28   47.10   14.20
  -1  -3 -28   47.60   20.90
  -1   3 -28   50.09   18.10
  -2   3 -28   -0.40   14.80
   2  -3 -28   -6.40   19.60
   2   3 -28   -6.00   16.50
  -2  -3 -28   18.50   21.60
  -3   3 -28   51.49   13.80
   3  -3 -28   30.70   19.80
  -3   3 -28   47.20   15.70
   3   3 -28   43.80   13.90
  -3   3  28   26.00   21.00
  -3  -3 -28   34.50   22.20
   0  -4 -28   72.89   21.90
   0   4 -28   94.39   17.30
   1  -4 -28   61.79   20.60
  -1  -4 -28   46.40   17.10
   1   4 -28   61.79   14.40
  -1   4 -28   46.30   18.00
  -2   4 -28  208.98   15.80
   2  -4 -28  150.28   21.50
   2   4 -28  200.58   15.00
  -2  -4 -28  229.68   18.70
  -3   4 -28    8.80   18.00
   3   4 -28    8.40   13.30
  -3   4 -28   18.70   15.40
  -3  -4 -28    8.70   21.70
  -3   4  28    9.00   22.90
   3  -4 -28   17.50   16.20
   1  -5 -28   17.40   19.70
  -1  -5 -28   -0.90   17.20
   1   5 -28   17.10   13.40
  -1   5 -28   12.90   17.40
  -2   5 -28    7.00   18.00
   2  -5 -28   20.50   17.40
  -2   5 -28   -1.00   14.50
   2   5 -28   23.00   13.90
  -2  -5 -28   20.90   21.10
  -3   5 -28   13.40   14.50
   3   5 -28   13.10   17.30
  -3   5 -28  -12.30   18.60
  -3   5  28   15.50   20.70
  -3  -5 -28   10.10   22.00
   3  -5 -28   10.60   17.80
   0  -6 -28   81.19   20.80
   0   6 -28   94.79   14.70
   1  -6 -28   18.00   16.50
  -1  -6 -28   14.20   21.00
   1   6 -28   11.20   17.30
  -1   6 -28   37.30   14.70
   2  -6 -28   31.70   20.90
  -2   6 -28   25.00   18.30
  -2   6 -28   28.40   18.10
  -2  -6 -28   28.70   21.50
   2   6 -28    9.90   17.70
  -1   7 -28    3.10   13.90
   1  -7 -28   -5.30   20.00
  -1  -7 -28    9.10   20.70
   1   7 -28    3.00   17.60
  -1   7 -28   -3.00   18.00
   1  -1 -29   32.60   19.10
   1   1 -29    8.50   18.30
  -1  -1 -29   10.20   16.80
  -1   1 -29   25.00   18.90
   2  -1 -29   10.60   15.40
   2   1 -29    7.20   14.80
  -2  -1 -29  -12.80   16.50
  -2   1 -29    0.00   20.20
  -3  -1 -29   14.30   18.20
  -3   1 -29    7.40   17.70
  -3   1 -29   15.00   20.80
   3  -1 -29   -4.10   18.70
   3   1 -29    6.20   14.60
  -3  -1 -29   14.30   23.10
   0  -2 -29   47.40   16.90
   0   2 -29   34.80   15.50
   1  -2 -29   16.70   19.90
   1   2 -29   20.60   14.90
  -1  -2 -29   16.00   20.90
  -1   2 -29   23.40   15.30
   2  -2 -29  -10.10   15.30
   2   2 -29   -4.90   17.90
  -2  -2 -29    1.10   21.20
  -2   2 -29   -2.10   15.70
  -3   2 -29   18.00   18.00
   3  -2 -29   -5.10   19.60
  -3   2 -29    6.90   16.80
   3   2 -29    4.30   17.60
  -3  -2 -29   17.00   22.40
   1  -3 -29   -2.90   16.60
   1   3 -29    8.10   14.20
  -1  -3 -29   17.20   20.90
  -1   3 -29   -3.00   14.90
  -2   3 -29   -7.00   19.40
   2  -3 -29   20.20   16.70
   2   3 -29   11.70   17.30
  -2  -3 -29   20.20   22.40
   0  -4 -29   46.10   22.30
   0   4 -29   53.59   14.70
   1  -4 -29  -10.40   21.60
  -1  -4 -29    7.40   22.50
   1   4 -29   10.60   14.60
  -1   4 -29   15.60   15.30
  -2   4 -29   13.90   15.20
  -2   4 -29   22.90   19.00
   2  -4 -29   51.79   21.50
   2   4 -29   22.90   14.80
  -2  -4 -29   20.10   22.70
   1  -5 -29   12.00   17.90
  -1  -5 -29   27.70   21.90
   1   5 -29   19.30   17.90
  -1   5 -29   14.70   18.60
   2  -5 -29   14.60   21.90
   0  -6 -29    5.70   21.50
   0   6 -29   -0.40   18.50
   0   0 -30   15.80   19.20
   1   0 -30  125.49   16.70
  -1   0 -30   71.19   21.00
   2   0 -30  108.79   19.00
  -2   0 -30   77.09   21.80
   1  -1 -30   -4.40   16.00
   1   1 -30   -2.10   18.80
  -1  -1 -30    9.80   20.80
  -1   1 -30    8.10   16.80
   0  -2 -30   95.19   17.90
   0   2 -30  125.49   19.40
   1  -2 -30   68.29   20.30
   1   2 -30   68.39   19.20
  -1  -2 -30   66.89   22.10
  -1   2 -30   55.89   16.80
   1  -3 -30    8.30   17.80
  -1  -3 -30  -14.70   19.00
  -1   3 -30    6.70   19.60
   0   0   0    0.00    0.00

_computing_structure_solution     'SHELXT 2018/2 (Sheldrick, 2018)'
;
_shelx_hkl_checksum              21729
_olex2_submission_special_instructions 'No special instructions were received'
